Title Card Required
 OpenBabel07152211483D

 14 13  0  0  0  0  0  0  0  0999 V2000
   -0.9793    1.1705    0.1442 C   0  0  0  0  0  0  0  0  0  0  0  0
   -0.4566    2.0269   -0.3789 H   0  0  0  0  0  0  0  0  0  0  0  0
   -0.4697    1.4225    1.1213 H   0  0  0  0  0  0  0  0  0  0  0  0
   -0.2330   -0.2068   -0.4379 C   0  0  0  0  0  0  0  0  0  0  0  0
   -0.4052   -1.0059    0.2615 H   0  0  0  0  0  0  0  0  0  0  0  0
   -0.5191   -0.5629   -1.4265 H   0  0  0  0  0  0  0  0  0  0  0  0
    1.7300   -0.0501    0.0463 Br  0  0  0  0  0  0  0  0  0  0  0  0
   -2.5275    1.0492    0.0441 C   0  0  0  0  0  0  0  0  0  0  0  0
   -2.7498    0.9846   -0.9506 H   0  0  0  0  0  0  0  0  0  0  0  0
   -2.7511    1.9061    0.6821 H   0  0  0  0  0  0  0  0  0  0  0  0
   -2.9046   -0.3905    0.5166 C   0  0  0  0  0  0  0  0  0  0  0  0
   -3.9275   -0.5799    0.9234 H   0  0  0  0  0  0  0  0  0  0  0  0
   -2.5579   -0.6425    1.6710 H   0  0  0  0  0  0  0  0  0  0  0  0
   -2.6791   -1.1935   -0.5487 O   0  0  0  0  0  1  0  0  0  0  0  0
  1  3  1  0  0  0  0
  2  1  1  0  0  0  0
  4  7  1  0  0  0  0
  4  1  1  0  0  0  0
  4  5  1  0  0  0  0
  6  4  1  0  0  0  0
  8  1  1  0  0  0  0
  8 11  1  0  0  0  0
  8 10  1  0  0  0  0
  9  8  1  0  0  0  0
 11 12  1  0  0  0  0
 11 13  1  0  0  0  0
 14 11  1  0  0  0  0
M  END
$$$$
Title Card Required
 OpenBabel07152211483D

 14 13  0  0  0  0  0  0  0  0999 V2000
   -0.9779    1.1916    0.1446 C   0  0  0  0  0  0  0  0  0  0  0  0
   -0.4773    1.9493   -0.3335 H   0  0  0  0  0  0  0  0  0  0  0  0
   -0.4210    1.4459    1.1068 H   0  0  0  0  0  0  0  0  0  0  0  0
   -0.2482   -0.1977   -0.4386 C   0  0  0  0  0  0  0  0  0  0  0  0
   -0.4269   -1.0445    0.2145 H   0  0  0  0  0  0  0  0  0  0  0  0
   -0.4788   -0.5438   -1.5279 H   0  0  0  0  0  0  0  0  0  0  0  0
    1.7296   -0.0520    0.0473 Br  0  0  0  0  0  0  0  0  0  0  0  0
   -2.5259    1.0325    0.0522 C   0  0  0  0  0  0  0  0  0  0  0  0
   -2.7839    1.0331   -0.9905 H   0  0  0  0  0  0  0  0  0  0  0  0
   -2.8145    1.9173    0.6675 H   0  0  0  0  0  0  0  0  0  0  0  0
   -2.8957   -0.3854    0.5171 C   0  0  0  0  0  0  0  0  0  0  0  0
   -3.8702   -0.5413    0.9217 H   0  0  0  0  0  0  0  0  0  0  0  0
   -2.6025   -0.5719    1.6178 H   0  0  0  0  0  0  0  0  0  0  0  0
   -2.6719   -1.2041   -0.5455 O   0  0  0  0  0  1  0  0  0  0  0  0
  1  3  1  0  0  0  0
  2  1  1  0  0  0  0
  4  7  1  0  0  0  0
  4  1  1  0  0  0  0
  4  5  1  0  0  0  0
  6  4  1  0  0  0  0
  8  1  1  0  0  0  0
  8 11  1  0  0  0  0
  8 10  1  0  0  0  0
  9  8  1  0  0  0  0
 11 12  1  0  0  0  0
 11 13  1  0  0  0  0
 14 11  1  0  0  0  0
M  END
$$$$
Title Card Required
 OpenBabel07152211483D

 14 13  0  0  0  0  0  0  0  0999 V2000
   -0.9734    1.2025    0.1459 C   0  0  0  0  0  0  0  0  0  0  0  0
   -0.4869    1.9369   -0.3592 H   0  0  0  0  0  0  0  0  0  0  0  0
   -0.4126    1.4392    1.0938 H   0  0  0  0  0  0  0  0  0  0  0  0
   -0.2668   -0.1859   -0.4379 C   0  0  0  0  0  0  0  0  0  0  0  0
   -0.4671   -1.0872    0.1623 H   0  0  0  0  0  0  0  0  0  0  0  0
   -0.4167   -0.4953   -1.5850 H   0  0  0  0  0  0  0  0  0  0  0  0
    1.7292   -0.0539    0.0481 Br  0  0  0  0  0  0  0  0  0  0  0  0
   -2.5193    1.0175    0.0660 C   0  0  0  0  0  0  0  0  0  0  0  0
   -2.8329    1.0938   -1.0506 H   0  0  0  0  0  0  0  0  0  0  0  0
   -2.9057    1.9227    0.6423 H   0  0  0  0  0  0  0  0  0  0  0  0
   -2.8871   -0.3826    0.5144 C   0  0  0  0  0  0  0  0  0  0  0  0
   -3.8907   -0.4756    0.9094 H   0  0  0  0  0  0  0  0  0  0  0  0
   -2.5850   -0.5017    1.5532 H   0  0  0  0  0  0  0  0  0  0  0  0
   -2.6631   -1.2145   -0.5396 O   0  0  0  0  0  1  0  0  0  0  0  0
  1  3  1  0  0  0  0
  2  1  1  0  0  0  0
  4  7  1  0  0  0  0
  4  1  1  0  0  0  0
  4  5  1  0  0  0  0
  6  4  1  0  0  0  0
  8  1  1  0  0  0  0
  8 11  1  0  0  0  0
  8 10  1  0  0  0  0
  9  8  1  0  0  0  0
 11 12  1  0  0  0  0
 11 13  1  0  0  0  0
 14 11  1  0  0  0  0
M  END
$$$$
Title Card Required
 OpenBabel07152211483D

 14 13  0  0  0  0  0  0  0  0999 V2000
   -0.9684    1.2023    0.1477 C   0  0  0  0  0  0  0  0  0  0  0  0
   -0.4805    1.9891   -0.4434 H   0  0  0  0  0  0  0  0  0  0  0  0
   -0.4355    1.4122    1.0898 H   0  0  0  0  0  0  0  0  0  0  0  0
   -0.2842   -0.1752   -0.4378 C   0  0  0  0  0  0  0  0  0  0  0  0
   -0.5124   -1.1135    0.1097 H   0  0  0  0  0  0  0  0  0  0  0  0
   -0.3526   -0.4282   -1.5762 H   0  0  0  0  0  0  0  0  0  0  0  0
    1.7289   -0.0554    0.0486 Br  0  0  0  0  0  0  0  0  0  0  0  0
   -2.5120    1.0093    0.0773 C   0  0  0  0  0  0  0  0  0  0  0  0
   -2.8674    1.1449   -1.0670 H   0  0  0  0  0  0  0  0  0  0  0  0
   -2.9898    1.9089    0.6123 H   0  0  0  0  0  0  0  0  0  0  0  0
   -2.8819   -0.3818    0.5077 C   0  0  0  0  0  0  0  0  0  0  0  0
   -3.9617   -0.4030    0.8886 H   0  0  0  0  0  0  0  0  0  0  0  0
   -2.5129   -0.4559    1.5215 H   0  0  0  0  0  0  0  0  0  0  0  0
   -2.6545   -1.2232   -0.5324 O   0  0  0  0  0  1  0  0  0  0  0  0
  1  3  1  0  0  0  0
  2  1  1  0  0  0  0
  4  7  1  0  0  0  0
  4  5  1  0  0  0  0
  4  1  1  0  0  0  0
  6  4  1  0  0  0  0
  8  1  1  0  0  0  0
  8 11  1  0  0  0  0
  8 10  1  0  0  0  0
  9  8  1  0  0  0  0
 11 12  1  0  0  0  0
 11 13  1  0  0  0  0
 14 11  1  0  0  0  0
M  END
$$$$
Title Card Required
 OpenBabel07152211483D

 14 13  0  0  0  0  0  0  0  0999 V2000
   -0.9621    1.1979    0.1468 C   0  0  0  0  0  0  0  0  0  0  0  0
   -0.4846    2.0442   -0.5317 H   0  0  0  0  0  0  0  0  0  0  0  0
   -0.4713    1.3781    1.0971 H   0  0  0  0  0  0  0  0  0  0  0  0
   -0.3003   -0.1655   -0.4379 C   0  0  0  0  0  0  0  0  0  0  0  0
   -0.5583   -1.1230    0.0567 H   0  0  0  0  0  0  0  0  0  0  0  0
   -0.2937   -0.3528   -1.5313 H   0  0  0  0  0  0  0  0  0  0  0  0
    1.7286   -0.0568    0.0489 Br  0  0  0  0  0  0  0  0  0  0  0  0
   -2.5055    1.0070    0.0848 C   0  0  0  0  0  0  0  0  0  0  0  0
   -2.8836    1.1826   -1.0405 H   0  0  0  0  0  0  0  0  0  0  0  0
   -3.0588    1.8782    0.5827 H   0  0  0  0  0  0  0  0  0  0  0  0
   -2.8808   -0.3821    0.4985 C   0  0  0  0  0  0  0  0  0  0  0  0
   -4.0325   -0.3312    0.8597 H   0  0  0  0  0  0  0  0  0  0  0  0
   -2.4152   -0.4308    1.5150 H   0  0  0  0  0  0  0  0  0  0  0  0
   -2.6461   -1.2307   -0.5242 O   0  0  0  0  0  1  0  0  0  0  0  0
  1  3  1  0  0  0  0
  2  1  1  0  0  0  0
  4  7  1  0  0  0  0
  4  5  1  0  0  0  0
  4  1  1  0  0  0  0
  6  4  1  0  0  0  0
  8  1  1  0  0  0  0
  8 11  1  0  0  0  0
  8 10  1  0  0  0  0
  9  8  1  0  0  0  0
 11 12  1  0  0  0  0
 11 13  1  0  0  0  0
 14 11  1  0  0  0  0
M  END
$$$$
Title Card Required
 OpenBabel07152211483D

 14 13  0  0  0  0  0  0  0  0999 V2000
   -0.9541    1.1920    0.1414 C   0  0  0  0  0  0  0  0  0  0  0  0
   -0.5087    2.0788   -0.6028 H   0  0  0  0  0  0  0  0  0  0  0  0
   -0.5133    1.3418    1.1174 H   0  0  0  0  0  0  0  0  0  0  0  0
   -0.3160   -0.1553   -0.4366 C   0  0  0  0  0  0  0  0  0  0  0  0
   -0.6068   -1.1195    0.0016 H   0  0  0  0  0  0  0  0  0  0  0  0
   -0.2386   -0.2703   -1.4787 H   0  0  0  0  0  0  0  0  0  0  0  0
    1.7283   -0.0580    0.0492 Br  0  0  0  0  0  0  0  0  0  0  0  0
   -2.4999    1.0093    0.0892 C   0  0  0  0  0  0  0  0  0  0  0  0
   -2.8835    1.2083   -0.9811 H   0  0  0  0  0  0  0  0  0  0  0  0
   -3.1149    1.8335    0.5567 H   0  0  0  0  0  0  0  0  0  0  0  0
   -2.8834   -0.3833    0.4880 C   0  0  0  0  0  0  0  0  0  0  0  0
   -4.0839   -0.2607    0.8226 H   0  0  0  0  0  0  0  0  0  0  0  0
   -2.3074   -0.4216    1.5145 H   0  0  0  0  0  0  0  0  0  0  0  0
   -2.6375   -1.2378   -0.5144 O   0  0  0  0  0  1  0  0  0  0  0  0
  1  3  1  0  0  0  0
  2  1  1  0  0  0  0
  4  5  1  0  0  0  0
  4  7  1  0  0  0  0
  4  1  1  0  0  0  0
  6  4  1  0  0  0  0
  8  1  1  0  0  0  0
  8 11  1  0  0  0  0
  8 10  1  0  0  0  0
  9  8  1  0  0  0  0
 11 12  1  0  0  0  0
 11 13  1  0  0  0  0
 14 11  1  0  0  0  0
M  END
$$$$
Title Card Required
 OpenBabel07152211483D

 14 13  0  0  0  0  0  0  0  0999 V2000
   -0.9445    1.1856    0.1303 C   0  0  0  0  0  0  0  0  0  0  0  0
   -0.5555    2.0813   -0.6437 H   0  0  0  0  0  0  0  0  0  0  0  0
   -0.5597    1.3058    1.1500 H   0  0  0  0  0  0  0  0  0  0  0  0
   -0.3317   -0.1431   -0.4316 C   0  0  0  0  0  0  0  0  0  0  0  0
   -0.6608   -1.1069   -0.0550 H   0  0  0  0  0  0  0  0  0  0  0  0
   -0.1846   -0.1807   -1.4510 H   0  0  0  0  0  0  0  0  0  0  0  0
    1.7280   -0.0593    0.0495 Br  0  0  0  0  0  0  0  0  0  0  0  0
   -2.4947    1.0161    0.0911 C   0  0  0  0  0  0  0  0  0  0  0  0
   -2.8691    1.2218   -0.9036 H   0  0  0  0  0  0  0  0  0  0  0  0
   -3.1584    1.7796    0.5416 H   0  0  0  0  0  0  0  0  0  0  0  0
   -2.8890   -0.3850    0.4766 C   0  0  0  0  0  0  0  0  0  0  0  0
   -4.1043   -0.1954    0.7784 H   0  0  0  0  0  0  0  0  0  0  0  0
   -2.2040   -0.4278    1.5049 H   0  0  0  0  0  0  0  0  0  0  0  0
   -2.6285   -1.2449   -0.5024 O   0  0  0  0  0  1  0  0  0  0  0  0
  1  3  1  0  0  0  0
  2  1  1  0  0  0  0
  4  5  1  0  0  0  0
  4  7  1  0  0  0  0
  4  1  1  0  0  0  0
  6  4  1  0  0  0  0
  8  1  1  0  0  0  0
  8 11  1  0  0  0  0
  8 10  1  0  0  0  0
  9  8  1  0  0  0  0
 11 12  1  0  0  0  0
 11 13  1  0  0  0  0
 14 11  1  0  0  0  0
M  END
$$$$
Title Card Required
 OpenBabel07152211483D

 14 13  0  0  0  0  0  0  0  0999 V2000
   -0.9342    1.1797    0.1140 C   0  0  0  0  0  0  0  0  0  0  0  0
   -0.6221    2.0432   -0.6408 H   0  0  0  0  0  0  0  0  0  0  0  0
   -0.6094    1.2739    1.1843 H   0  0  0  0  0  0  0  0  0  0  0  0
   -0.3469   -0.1281   -0.4222 C   0  0  0  0  0  0  0  0  0  0  0  0
   -0.7215   -1.0916   -0.1092 H   0  0  0  0  0  0  0  0  0  0  0  0
   -0.1322   -0.0864   -1.4684 H   0  0  0  0  0  0  0  0  0  0  0  0
    1.7276   -0.0607    0.0499 Br  0  0  0  0  0  0  0  0  0  0  0  0
   -2.4889    1.0260    0.0923 C   0  0  0  0  0  0  0  0  0  0  0  0
   -2.8503    1.2252   -0.8477 H   0  0  0  0  0  0  0  0  0  0  0  0
   -3.1875    1.7280    0.5500 H   0  0  0  0  0  0  0  0  0  0  0  0
   -2.8965   -0.3867    0.4650 C   0  0  0  0  0  0  0  0  0  0  0  0
   -4.0838   -0.1453    0.7313 H   0  0  0  0  0  0  0  0  0  0  0  0
   -2.1249   -0.4497    1.4772 H   0  0  0  0  0  0  0  0  0  0  0  0
   -2.6193   -1.2521   -0.4881 O   0  0  0  0  0  1  0  0  0  0  0  0
  1  3  1  0  0  0  0
  2  1  1  0  0  0  0
  4  5  1  0  0  0  0
  4  7  1  0  0  0  0
  4  1  1  0  0  0  0
  6  4  1  0  0  0  0
  8  1  1  0  0  0  0
  8 11  1  0  0  0  0
  8 10  1  0  0  0  0
  9  8  1  0  0  0  0
 11 12  1  0  0  0  0
 11 13  1  0  0  0  0
 14 11  1  0  0  0  0
M  END
$$$$
Title Card Required
 OpenBabel07152211483D

 14 13  0  0  0  0  0  0  0  0999 V2000
   -0.9251    1.1746    0.0957 C   0  0  0  0  0  0  0  0  0  0  0  0
   -0.6945    1.9747   -0.5954 H   0  0  0  0  0  0  0  0  0  0  0  0
   -0.6598    1.2513    1.2018 H   0  0  0  0  0  0  0  0  0  0  0  0
   -0.3596   -0.1105   -0.4120 C   0  0  0  0  0  0  0  0  0  0  0  0
   -0.7872   -1.0796   -0.1576 H   0  0  0  0  0  0  0  0  0  0  0  0
   -0.0907    0.0056   -1.5067 H   0  0  0  0  0  0  0  0  0  0  0  0
    1.7271   -0.0622    0.0502 Br  0  0  0  0  0  0  0  0  0  0  0  0
   -2.4813    1.0367    0.0952 C   0  0  0  0  0  0  0  0  0  0  0  0
   -2.8421    1.2247   -0.8610 H   0  0  0  0  0  0  0  0  0  0  0  0
   -3.2006    1.6931    0.5918 H   0  0  0  0  0  0  0  0  0  0  0  0
   -2.9040   -0.3874    0.4538 C   0  0  0  0  0  0  0  0  0  0  0  0
   -4.0237   -0.1222    0.6892 H   0  0  0  0  0  0  0  0  0  0  0  0
   -2.0895   -0.4844    1.4310 H   0  0  0  0  0  0  0  0  0  0  0  0
   -2.6106   -1.2596   -0.4723 O   0  0  0  0  0  1  0  0  0  0  0  0
  1  3  1  0  0  0  0
  2  1  1  0  0  0  0
  4  5  1  0  0  0  0
  4  7  1  0  0  0  0
  4  1  1  0  0  0  0
  6  4  1  0  0  0  0
  8  1  1  0  0  0  0
  8 11  1  0  0  0  0
  8 10  1  0  0  0  0
  9  8  1  0  0  0  0
 11 12  1  0  0  0  0
 11 13  1  0  0  0  0
 14 11  1  0  0  0  0
M  END
$$$$
Title Card Required
 OpenBabel07152211483D

 14 13  0  0  0  0  0  0  0  0999 V2000
   -0.9200    1.1680    0.0810 C   0  0  0  0  0  0  0  0  0  0  0  0
   -0.7491    1.9264   -0.5436 H   0  0  0  0  0  0  0  0  0  0  0  0
   -0.7070    1.2417    1.1900 H   0  0  0  0  0  0  0  0  0  0  0  0
   -0.3678   -0.0908   -0.4056 C   0  0  0  0  0  0  0  0  0  0  0  0
   -0.8545   -1.0688   -0.2019 H   0  0  0  0  0  0  0  0  0  0  0  0
   -0.0724    0.0856   -1.5269 H   0  0  0  0  0  0  0  0  0  0  0  0
    1.7265   -0.0638    0.0507 Br  0  0  0  0  0  0  0  0  0  0  0  0
   -2.4726    1.0474    0.0988 C   0  0  0  0  0  0  0  0  0  0  0  0
   -2.8444    1.2217   -0.9369 H   0  0  0  0  0  0  0  0  0  0  0  0
   -3.1919    1.6802    0.6651 H   0  0  0  0  0  0  0  0  0  0  0  0
   -2.9087   -0.3866    0.4436 C   0  0  0  0  0  0  0  0  0  0  0  0
   -3.9455   -0.1312    0.6615 H   0  0  0  0  0  0  0  0  0  0  0  0
   -2.1086   -0.5255    1.3716 H   0  0  0  0  0  0  0  0  0  0  0  0
   -2.6029   -1.2682   -0.4563 O   0  0  0  0  0  1  0  0  0  0  0  0
  1  8  1  0  0  0  0
  1  3  1  0  0  0  0
  2  1  1  0  0  0  0
  4  5  1  0  0  0  0
  4  7  1  0  0  0  0
  4  1  1  0  0  0  0
  6  4  1  0  0  0  0
  8 11  1  0  0  0  0
  8 10  1  0  0  0  0
  9  8  1  0  0  0  0
 11 12  1  0  0  0  0
 11 13  1  0  0  0  0
 14 11  1  0  0  0  0
M  END
$$$$
Title Card Required
 OpenBabel07152211483D

 14 13  0  0  0  0  0  0  0  0999 V2000
   -0.9220    1.1563    0.0754 C   0  0  0  0  0  0  0  0  0  0  0  0
   -0.7627    1.9668   -0.5340 H   0  0  0  0  0  0  0  0  0  0  0  0
   -0.7456    1.2493    1.1502 H   0  0  0  0  0  0  0  0  0  0  0  0
   -0.3700   -0.0697   -0.4063 C   0  0  0  0  0  0  0  0  0  0  0  0
   -0.9209   -1.0497   -0.2473 H   0  0  0  0  0  0  0  0  0  0  0  0
   -0.0863    0.1445   -1.5053 H   0  0  0  0  0  0  0  0  0  0  0  0
    1.7257   -0.0656    0.0513 Br  0  0  0  0  0  0  0  0  0  0  0  0
   -2.4652    1.0585    0.0991 C   0  0  0  0  0  0  0  0  0  0  0  0
   -2.8435    1.2132   -1.0220 H   0  0  0  0  0  0  0  0  0  0  0  0
   -3.1473    1.6855    0.7588 H   0  0  0  0  0  0  0  0  0  0  0  0
   -2.9063   -0.3840    0.4341 C   0  0  0  0  0  0  0  0  0  0  0  0
   -3.8991   -0.1692    0.6615 H   0  0  0  0  0  0  0  0  0  0  0  0
   -2.1870   -0.5669    1.3101 H   0  0  0  0  0  0  0  0  0  0  0  0
   -2.5957   -1.2795   -0.4411 O   0  0  0  0  0  1  0  0  0  0  0  0
  1  8  1  0  0  0  0
  1  3  1  0  0  0  0
  2  1  1  0  0  0  0
  4  5  1  0  0  0  0
  4  7  1  0  0  0  0
  4  1  1  0  0  0  0
  6  4  1  0  0  0  0
  8 11  1  0  0  0  0
  8 10  1  0  0  0  0
  9  8  1  0  0  0  0
 11 12  1  0  0  0  0
 11 13  1  0  0  0  0
 14 11  1  0  0  0  0
M  END
$$$$
Title Card Required
 OpenBabel07152211483D

 14 13  0  0  0  0  0  0  0  0999 V2000
   -0.9312    1.1454    0.0775 C   0  0  0  0  0  0  0  0  0  0  0  0
   -0.7370    2.0664   -0.5508 H   0  0  0  0  0  0  0  0  0  0  0  0
   -0.7616    1.2728    1.1161 H   0  0  0  0  0  0  0  0  0  0  0  0
   -0.3659   -0.0526   -0.4144 C   0  0  0  0  0  0  0  0  0  0  0  0
   -0.9731   -1.0200   -0.2876 H   0  0  0  0  0  0  0  0  0  0  0  0
   -0.1251    0.1701   -1.4550 H   0  0  0  0  0  0  0  0  0  0  0  0
    1.7248   -0.0673    0.0520 Br  0  0  0  0  0  0  0  0  0  0  0  0
   -2.4622    1.0681    0.0937 C   0  0  0  0  0  0  0  0  0  0  0  0
   -2.8324    1.2026   -1.0563 H   0  0  0  0  0  0  0  0  0  0  0  0
   -3.0690    1.6994    0.8367 H   0  0  0  0  0  0  0  0  0  0  0  0
   -2.8963   -0.3798    0.4262 C   0  0  0  0  0  0  0  0  0  0  0  0
   -3.9282   -0.2194    0.6929 H   0  0  0  0  0  0  0  0  0  0  0  0
   -2.2893   -0.5976    1.2846 H   0  0  0  0  0  0  0  0  0  0  0  0
   -2.5899   -1.2925   -0.4306 O   0  0  0  0  0  1  0  0  0  0  0  0
  1  8  1  0  0  0  0
  1  3  1  0  0  0  0
  2  1  1  0  0  0  0
  4  5  1  0  0  0  0
  4  7  1  0  0  0  0
  4  1  1  0  0  0  0
  6  4  1  0  0  0  0
  8 11  1  0  0  0  0
  8 10  1  0  0  0  0
  9  8  1  0  0  0  0
 11 12  1  0  0  0  0
 11 13  1  0  0  0  0
 14 11  1  0  0  0  0
M  END
$$$$
Title Card Required
 OpenBabel07152211483D

 14 13  0  0  0  0  0  0  0  0999 V2000
   -0.9450    1.1416    0.0811 C   0  0  0  0  0  0  0  0  0  0  0  0
   -0.6942    2.1534   -0.5492 H   0  0  0  0  0  0  0  0  0  0  0  0
   -0.7547    1.3082    1.1125 H   0  0  0  0  0  0  0  0  0  0  0  0
   -0.3570   -0.0399   -0.4261 C   0  0  0  0  0  0  0  0  0  0  0  0
   -1.0126   -0.9836   -0.3229 H   0  0  0  0  0  0  0  0  0  0  0  0
   -0.1711    0.1750   -1.4194 H   0  0  0  0  0  0  0  0  0  0  0  0
    1.7239   -0.0690    0.0528 Br  0  0  0  0  0  0  0  0  0  0  0  0
   -2.4632    1.0761    0.0835 C   0  0  0  0  0  0  0  0  0  0  0  0
   -2.8135    1.1944   -1.0341 H   0  0  0  0  0  0  0  0  0  0  0  0
   -2.9665    1.7149    0.8881 H   0  0  0  0  0  0  0  0  0  0  0  0
   -2.8848   -0.3735    0.4189 C   0  0  0  0  0  0  0  0  0  0  0  0
   -3.9944   -0.2765    0.7373 H   0  0  0  0  0  0  0  0  0  0  0  0
   -2.3830   -0.6209    1.3190 H   0  0  0  0  0  0  0  0  0  0  0  0
   -2.5847   -1.3073   -0.4245 O   0  0  0  0  0  1  0  0  0  0  0  0
  1  8  1  0  0  0  0
  1  3  1  0  0  0  0
  2  1  1  0  0  0  0
  4  5  1  0  0  0  0
  4  7  1  0  0  0  0
  4  1  1  0  0  0  0
  6  4  1  0  0  0  0
  8 11  1  0  0  0  0
  8 10  1  0  0  0  0
  9  8  1  0  0  0  0
 11 12  1  0  0  0  0
 11 13  1  0  0  0  0
 14 11  1  0  0  0  0
M  END
$$$$
Title Card Required
 OpenBabel07152211483D

 14 13  0  0  0  0  0  0  0  0999 V2000
   -0.9613    1.1468    0.0845 C   0  0  0  0  0  0  0  0  0  0  0  0
   -0.6487    2.1975   -0.5162 H   0  0  0  0  0  0  0  0  0  0  0  0
   -0.7289    1.3496    1.1355 H   0  0  0  0  0  0  0  0  0  0  0  0
   -0.3447   -0.0314   -0.4376 C   0  0  0  0  0  0  0  0  0  0  0  0
   -1.0396   -0.9471   -0.3514 H   0  0  0  0  0  0  0  0  0  0  0  0
   -0.2109    0.1714   -1.4393 H   0  0  0  0  0  0  0  0  0  0  0  0
    1.7228   -0.0707    0.0535 Br  0  0  0  0  0  0  0  0  0  0  0  0
   -2.4670    1.0822    0.0708 C   0  0  0  0  0  0  0  0  0  0  0  0
   -2.7945    1.1938   -0.9718 H   0  0  0  0  0  0  0  0  0  0  0  0
   -2.8532    1.7304    0.9098 H   0  0  0  0  0  0  0  0  0  0  0  0
   -2.8765   -0.3660    0.4129 C   0  0  0  0  0  0  0  0  0  0  0  0
   -4.0545   -0.3353    0.7755 H   0  0  0  0  0  0  0  0  0  0  0  0
   -2.4583   -0.6369    1.4088 H   0  0  0  0  0  0  0  0  0  0  0  0
   -2.5797   -1.3232   -0.4219 O   0  0  0  0  0  1  0  0  0  0  0  0
  1  3  1  0  0  0  0
  2  1  1  0  0  0  0
  4  5  1  0  0  0  0
  4  7  1  0  0  0  0
  4  1  1  0  0  0  0
  6  4  1  0  0  0  0
  8  1  1  0  0  0  0
  8 11  1  0  0  0  0
  8 10  1  0  0  0  0
  9  8  1  0  0  0  0
 11 12  1  0  0  0  0
 11 13  1  0  0  0  0
 14 11  1  0  0  0  0
M  END
$$$$
Title Card Required
 OpenBabel07152211483D

 14 13  0  0  0  0  0  0  0  0999 V2000
   -0.9770    1.1607    0.0889 C   0  0  0  0  0  0  0  0  0  0  0  0
   -0.6102    2.1927   -0.4550 H   0  0  0  0  0  0  0  0  0  0  0  0
   -0.6939    1.3876    1.1624 H   0  0  0  0  0  0  0  0  0  0  0  0
   -0.3298   -0.0256   -0.4483 C   0  0  0  0  0  0  0  0  0  0  0  0
   -1.0535   -0.9173   -0.3712 H   0  0  0  0  0  0  0  0  0  0  0  0
   -0.2412    0.1639   -1.5122 H   0  0  0  0  0  0  0  0  0  0  0  0
    1.7214   -0.0723    0.0542 Br  0  0  0  0  0  0  0  0  0  0  0  0
   -2.4715    1.0858    0.0592 C   0  0  0  0  0  0  0  0  0  0  0  0
   -2.7894    1.2075   -0.9098 H   0  0  0  0  0  0  0  0  0  0  0  0
   -2.7447    1.7471    0.9049 H   0  0  0  0  0  0  0  0  0  0  0  0
   -2.8726   -0.3599    0.4105 C   0  0  0  0  0  0  0  0  0  0  0  0
   -4.0874   -0.3882    0.7955 H   0  0  0  0  0  0  0  0  0  0  0  0
   -2.5221   -0.6383    1.5166 H   0  0  0  0  0  0  0  0  0  0  0  0
   -2.5747   -1.3390   -0.4216 O   0  0  0  0  0  1  0  0  0  0  0  0
  1  3  1  0  0  0  0
  2  1  1  0  0  0  0
  4  5  1  0  0  0  0
  4  7  1  0  0  0  0
  4  1  1  0  0  0  0
  6  4  1  0  0  0  0
  8  1  1  0  0  0  0
  8 11  1  0  0  0  0
  8 10  1  0  0  0  0
  9  8  1  0  0  0  0
 11 12  1  0  0  0  0
 11 13  1  0  0  0  0
 14 11  1  0  0  0  0
M  END
$$$$
Title Card Required
 OpenBabel07152211483D

 14 13  0  0  0  0  0  0  0  0999 V2000
   -0.9902    1.1830    0.0955 C   0  0  0  0  0  0  0  0  0  0  0  0
   -0.5833    2.1428   -0.3707 H   0  0  0  0  0  0  0  0  0  0  0  0
   -0.6580    1.4144    1.1755 H   0  0  0  0  0  0  0  0  0  0  0  0
   -0.3117   -0.0205   -0.4618 C   0  0  0  0  0  0  0  0  0  0  0  0
   -1.0524   -0.8986   -0.3813 H   0  0  0  0  0  0  0  0  0  0  0  0
   -0.2658    0.1485   -1.6020 H   0  0  0  0  0  0  0  0  0  0  0  0
    1.7197   -0.0741    0.0550 Br  0  0  0  0  0  0  0  0  0  0  0  0
   -2.4749    1.0862    0.0526 C   0  0  0  0  0  0  0  0  0  0  0  0
   -2.8150    1.2448   -0.8958 H   0  0  0  0  0  0  0  0  0  0  0  0
   -2.6516    1.7707    0.8805 H   0  0  0  0  0  0  0  0  0  0  0  0
   -2.8738   -0.3569    0.4138 C   0  0  0  0  0  0  0  0  0  0  0  0
   -4.0855   -0.4308    0.7908 H   0  0  0  0  0  0  0  0  0  0  0  0
   -2.5811   -0.6186    1.6113 H   0  0  0  0  0  0  0  0  0  0  0  0
   -2.5695   -1.3544   -0.4224 O   0  0  0  0  0  1  0  0  0  0  0  0
  1  3  1  0  0  0  0
  2  1  1  0  0  0  0
  4  5  1  0  0  0  0
  4  7  1  0  0  0  0
  4  1  1  0  0  0  0
  6  4  1  0  0  0  0
  8  1  1  0  0  0  0
  8 11  1  0  0  0  0
  8 10  1  0  0  0  0
  9  8  1  0  0  0  0
 11 12  1  0  0  0  0
 11 13  1  0  0  0  0
 14 11  1  0  0  0  0
M  END
$$$$
Title Card Required
 OpenBabel07152211483D

 14 13  0  0  0  0  0  0  0  0999 V2000
   -0.9980    1.2099    0.1050 C   0  0  0  0  0  0  0  0  0  0  0  0
   -0.5665    2.0769   -0.2861 H   0  0  0  0  0  0  0  0  0  0  0  0
   -0.6313    1.4205    1.1667 H   0  0  0  0  0  0  0  0  0  0  0  0
   -0.2917   -0.0145   -0.4803 C   0  0  0  0  0  0  0  0  0  0  0  0
   -1.0319   -0.8956   -0.3798 H   0  0  0  0  0  0  0  0  0  0  0  0
   -0.2835    0.1236   -1.6651 H   0  0  0  0  0  0  0  0  0  0  0  0
    1.7175   -0.0760    0.0556 Br  0  0  0  0  0  0  0  0  0  0  0  0
   -2.4764    1.0832    0.0518 C   0  0  0  0  0  0  0  0  0  0  0  0
   -2.8738    1.3077   -0.9408 H   0  0  0  0  0  0  0  0  0  0  0  0
   -2.5933    1.8070    0.8484 H   0  0  0  0  0  0  0  0  0  0  0  0
   -2.8809   -0.3592    0.4238 C   0  0  0  0  0  0  0  0  0  0  0  0
   -4.0435   -0.4550    0.7555 H   0  0  0  0  0  0  0  0  0  0  0  0
   -2.6300   -0.5754    1.6665 H   0  0  0  0  0  0  0  0  0  0  0  0
   -2.5639   -1.3681   -0.4231 O   0  0  0  0  0  1  0  0  0  0  0  0
  1  3  1  0  0  0  0
  2  1  1  0  0  0  0
  4  5  1  0  0  0  0
  4  7  1  0  0  0  0
  4  1  1  0  0  0  0
  6  4  1  0  0  0  0
  8  1  1  0  0  0  0
  8 11  1  0  0  0  0
  8 10  1  0  0  0  0
  9  8  1  0  0  0  0
 11 12  1  0  0  0  0
 11 13  1  0  0  0  0
 14 11  1  0  0  0  0
M  END
$$$$
Title Card Required
 OpenBabel07152211483D

 14 13  0  0  0  0  0  0  0  0999 V2000
   -1.0002    1.2340    0.1179 C   0  0  0  0  0  0  0  0  0  0  0  0
   -0.5400    2.0588   -0.2379 H   0  0  0  0  0  0  0  0  0  0  0  0
   -0.6199    1.4013    1.1452 H   0  0  0  0  0  0  0  0  0  0  0  0
   -0.2712   -0.0067   -0.5048 C   0  0  0  0  0  0  0  0  0  0  0  0
   -0.9895   -0.9068   -0.3668 H   0  0  0  0  0  0  0  0  0  0  0  0
   -0.2912    0.0922   -1.6776 H   0  0  0  0  0  0  0  0  0  0  0  0
    1.7149   -0.0779    0.0563 Br  0  0  0  0  0  0  0  0  0  0  0  0
   -2.4775    1.0780    0.0524 C   0  0  0  0  0  0  0  0  0  0  0  0
   -2.9403    1.3805   -0.9907 H   0  0  0  0  0  0  0  0  0  0  0  0
   -2.5828    1.8572    0.8189 H   0  0  0  0  0  0  0  0  0  0  0  0
   -2.8939   -0.3671    0.4396 C   0  0  0  0  0  0  0  0  0  0  0  0
   -3.9724   -0.4570    0.6919 H   0  0  0  0  0  0  0  0  0  0  0  0
   -2.6622   -0.5128    1.6714 H   0  0  0  0  0  0  0  0  0  0  0  0
   -2.5578   -1.3792   -0.4228 O   0  0  0  0  0  1  0  0  0  0  0  0
  1  3  1  0  0  0  0
  2  1  1  0  0  0  0
  4  5  1  0  0  0  0
  4  7  1  0  0  0  0
  4  1  1  0  0  0  0
  6  4  1  0  0  0  0
  8  1  1  0  0  0  0
  8 11  1  0  0  0  0
  8 10  1  0  0  0  0
  9  8  1  0  0  0  0
 11 12  1  0  0  0  0
 11 13  1  0  0  0  0
 14 11  1  0  0  0  0
M  END
$$$$
Title Card Required
 OpenBabel07152211483D

 14 13  0  0  0  0  0  0  0  0999 V2000
   -0.9974    1.2497    0.1313 C   0  0  0  0  0  0  0  0  0  0  0  0
   -0.4955    2.1181   -0.2431 H   0  0  0  0  0  0  0  0  0  0  0  0
   -0.6216    1.3603    1.1344 H   0  0  0  0  0  0  0  0  0  0  0  0
   -0.2526    0.0022   -0.5319 C   0  0  0  0  0  0  0  0  0  0  0  0
   -0.9289   -0.9235   -0.3455 H   0  0  0  0  0  0  0  0  0  0  0  0
   -0.2867    0.0619   -1.6444 H   0  0  0  0  0  0  0  0  0  0  0  0
    1.7121   -0.0798    0.0568 Br  0  0  0  0  0  0  0  0  0  0  0  0
   -2.4798    1.0738    0.0514 C   0  0  0  0  0  0  0  0  0  0  0  0
   -2.9862    1.4397   -0.9994 H   0  0  0  0  0  0  0  0  0  0  0  0
   -2.6204    1.9074    0.7928 H   0  0  0  0  0  0  0  0  0  0  0  0
   -2.9080   -0.3786    0.4579 C   0  0  0  0  0  0  0  0  0  0  0  0
   -3.9230   -0.4397    0.6166 H   0  0  0  0  0  0  0  0  0  0  0  0
   -2.6727   -0.4447    1.6305 H   0  0  0  0  0  0  0  0  0  0  0  0
   -2.5514   -1.3871   -0.4209 O   0  0  0  0  0  1  0  0  0  0  0  0
  1  3  1  0  0  0  0
  2  1  1  0  0  0  0
  4  5  1  0  0  0  0
  4  7  1  0  0  0  0
  4  1  1  0  0  0  0
  6  4  1  0  0  0  0
  8  1  1  0  0  0  0
  8 11  1  0  0  0  0
  8 10  1  0  0  0  0
  9  8  1  0  0  0  0
 11 12  1  0  0  0  0
 11 13  1  0  0  0  0
 14 11  1  0  0  0  0
M  END
$$$$
Title Card Required
 OpenBabel07152211483D

 14 13  0  0  0  0  0  0  0  0999 V2000
   -0.9896    1.2595    0.1410 C   0  0  0  0  0  0  0  0  0  0  0  0
   -0.4589    2.2042   -0.2735 H   0  0  0  0  0  0  0  0  0  0  0  0
   -0.6291    1.3065    1.1498 H   0  0  0  0  0  0  0  0  0  0  0  0
   -0.2370    0.0115   -0.5571 C   0  0  0  0  0  0  0  0  0  0  0  0
   -0.8555   -0.9358   -0.3199 H   0  0  0  0  0  0  0  0  0  0  0  0
   -0.2714    0.0386   -1.6044 H   0  0  0  0  0  0  0  0  0  0  0  0
    1.7091   -0.0816    0.0571 Br  0  0  0  0  0  0  0  0  0  0  0  0
   -2.4838    1.0726    0.0486 C   0  0  0  0  0  0  0  0  0  0  0  0
   -3.0018    1.4741   -0.9615 H   0  0  0  0  0  0  0  0  0  0  0  0
   -2.6920    1.9427    0.7654 H   0  0  0  0  0  0  0  0  0  0  0  0
   -2.9182   -0.3914    0.4750 C   0  0  0  0  0  0  0  0  0  0  0  0
   -3.9463   -0.4107    0.5450 H   0  0  0  0  0  0  0  0  0  0  0  0
   -2.6638   -0.3835    1.5669 H   0  0  0  0  0  0  0  0  0  0  0  0
   -2.5449   -1.3922   -0.4172 O   0  0  0  0  0  1  0  0  0  0  0  0
  1  3  1  0  0  0  0
  2  1  1  0  0  0  0
  4  5  1  0  0  0  0
  4  7  1  0  0  0  0
  4  1  1  0  0  0  0
  6  4  1  0  0  0  0
  8  1  1  0  0  0  0
  8 11  1  0  0  0  0
  8 10  1  0  0  0  0
  9  8  1  0  0  0  0
 11 12  1  0  0  0  0
 11 13  1  0  0  0  0
 14 11  1  0  0  0  0
M  END
$$$$
Title Card Required
 OpenBabel07152211483D

 14 13  0  0  0  0  0  0  0  0999 V2000
   -0.9769    1.2670    0.1456 C   0  0  0  0  0  0  0  0  0  0  0  0
   -0.4482    2.2734   -0.3019 H   0  0  0  0  0  0  0  0  0  0  0  0
   -0.6389    1.2467    1.1867 H   0  0  0  0  0  0  0  0  0  0  0  0
   -0.2239    0.0207   -0.5765 C   0  0  0  0  0  0  0  0  0  0  0  0
   -0.7733   -0.9377   -0.2932 H   0  0  0  0  0  0  0  0  0  0  0  0
   -0.2479    0.0247   -1.6016 H   0  0  0  0  0  0  0  0  0  0  0  0
    1.7061   -0.0832    0.0574 Br  0  0  0  0  0  0  0  0  0  0  0  0
   -2.4894    1.0753    0.0449 C   0  0  0  0  0  0  0  0  0  0  0  0
   -2.9906    1.4831   -0.8922 H   0  0  0  0  0  0  0  0  0  0  0  0
   -2.7827    1.9553    0.7350 H   0  0  0  0  0  0  0  0  0  0  0  0
   -2.9250   -0.4042    0.4879 C   0  0  0  0  0  0  0  0  0  0  0  0
   -4.0311   -0.3734    0.4805 H   0  0  0  0  0  0  0  0  0  0  0  0
   -2.6381   -0.3368    1.5116 H   0  0  0  0  0  0  0  0  0  0  0  0
   -2.5382   -1.3951   -0.4116 O   0  0  0  0  0  1  0  0  0  0  0  0
  1  3  1  0  0  0  0
  2  1  1  0  0  0  0
  4  5  1  0  0  0  0
  4  7  1  0  0  0  0
  4  1  1  0  0  0  0
  6  4  1  0  0  0  0
  8  1  1  0  0  0  0
  8 11  1  0  0  0  0
  8 10  1  0  0  0  0
  9  8  1  0  0  0  0
 11 13  1  0  0  0  0
 12 11  1  0  0  0  0
 14 11  1  0  0  0  0
M  END
$$$$
Title Card Required
 OpenBabel07152211483D

 14 13  0  0  0  0  0  0  0  0999 V2000
   -0.9596    1.2737    0.1456 C   0  0  0  0  0  0  0  0  0  0  0  0
   -0.4674    2.3077   -0.3148 H   0  0  0  0  0  0  0  0  0  0  0  0
   -0.6522    1.1846    1.2284 H   0  0  0  0  0  0  0  0  0  0  0  0
   -0.2124    0.0305   -0.5892 C   0  0  0  0  0  0  0  0  0  0  0  0
   -0.6841   -0.9275   -0.2669 H   0  0  0  0  0  0  0  0  0  0  0  0
   -0.2178    0.0195   -1.6510 H   0  0  0  0  0  0  0  0  0  0  0  0
    1.7030   -0.0849    0.0576 Br  0  0  0  0  0  0  0  0  0  0  0  0
   -2.4958    1.0814    0.0420 C   0  0  0  0  0  0  0  0  0  0  0  0
   -2.9631    1.4728   -0.8192 H   0  0  0  0  0  0  0  0  0  0  0  0
   -2.8829    1.9427    0.7034 H   0  0  0  0  0  0  0  0  0  0  0  0
   -2.9326   -0.4170    0.4940 C   0  0  0  0  0  0  0  0  0  0  0  0
   -4.1282   -0.3299    0.4258 H   0  0  0  0  0  0  0  0  0  0  0  0
   -2.5964   -0.3071    1.4924 H   0  0  0  0  0  0  0  0  0  0  0  0
   -2.5312   -1.3961   -0.4035 O   0  0  0  0  0  1  0  0  0  0  0  0
  1  3  1  0  0  0  0
  2  1  1  0  0  0  0
  4  5  1  0  0  0  0
  4  7  1  0  0  0  0
  4  1  1  0  0  0  0
  6  4  1  0  0  0  0
  8  1  1  0  0  0  0
  8 11  1  0  0  0  0
  8 10  1  0  0  0  0
  9  8  1  0  0  0  0
 11 13  1  0  0  0  0
 12 11  1  0  0  0  0
 14 11  1  0  0  0  0
M  END
$$$$
Title Card Required
 OpenBabel07152211483D

 14 13  0  0  0  0  0  0  0  0999 V2000
   -0.9382    1.2801    0.1422 C   0  0  0  0  0  0  0  0  0  0  0  0
   -0.5158    2.2979   -0.3039 H   0  0  0  0  0  0  0  0  0  0  0  0
   -0.6707    1.1252    1.2557 H   0  0  0  0  0  0  0  0  0  0  0  0
   -0.2016    0.0417   -0.5978 C   0  0  0  0  0  0  0  0  0  0  0  0
   -0.5925   -0.9083   -0.2416 H   0  0  0  0  0  0  0  0  0  0  0  0
   -0.1819    0.0223   -1.7270 H   0  0  0  0  0  0  0  0  0  0  0  0
    1.6997   -0.0865    0.0576 Br  0  0  0  0  0  0  0  0  0  0  0  0
   -2.5014    1.0896    0.0431 C   0  0  0  0  0  0  0  0  0  0  0  0
   -2.9390    1.4566   -0.7903 H   0  0  0  0  0  0  0  0  0  0  0  0
   -2.9852    1.9050    0.6758 H   0  0  0  0  0  0  0  0  0  0  0  0
   -2.9439   -0.4297    0.4913 C   0  0  0  0  0  0  0  0  0  0  0  0
   -4.2011   -0.2843    0.3880 H   0  0  0  0  0  0  0  0  0  0  0  0
   -2.5435   -0.2977    1.5165 H   0  0  0  0  0  0  0  0  0  0  0  0
   -2.5240   -1.3950   -0.3922 O   0  0  0  0  0  1  0  0  0  0  0  0
  1  3  1  0  0  0  0
  2  1  1  0  0  0  0
  4  5  1  0  0  0  0
  4  7  1  0  0  0  0
  4  1  1  0  0  0  0
  6  4  1  0  0  0  0
  8  1  1  0  0  0  0
  8 11  1  0  0  0  0
  8 10  1  0  0  0  0
  9  8  1  0  0  0  0
 11 13  1  0  0  0  0
 12 11  1  0  0  0  0
 14 11  1  0  0  0  0
M  END
$$$$
Title Card Required
 OpenBabel07152211483D

 14 13  0  0  0  0  0  0  0  0999 V2000
   -0.9150    1.2849    0.1371 C   0  0  0  0  0  0  0  0  0  0  0  0
   -0.5831    2.2485   -0.2689 H   0  0  0  0  0  0  0  0  0  0  0  0
   -0.6926    1.0776    1.2523 H   0  0  0  0  0  0  0  0  0  0  0  0
   -0.1910    0.0555   -0.6057 C   0  0  0  0  0  0  0  0  0  0  0  0
   -0.5108   -0.8900   -0.2183 H   0  0  0  0  0  0  0  0  0  0  0  0
   -0.1444    0.0331   -1.7841 H   0  0  0  0  0  0  0  0  0  0  0  0
    1.6963   -0.0881    0.0576 Br  0  0  0  0  0  0  0  0  0  0  0  0
   -2.5046    1.0978    0.0507 C   0  0  0  0  0  0  0  0  0  0  0  0
   -2.9334    1.4452   -0.8474 H   0  0  0  0  0  0  0  0  0  0  0  0
   -3.0790    1.8475    0.6607 H   0  0  0  0  0  0  0  0  0  0  0  0
   -2.9580   -0.4411    0.4802 C   0  0  0  0  0  0  0  0  0  0  0  0
   -4.2280   -0.2443    0.3752 H   0  0  0  0  0  0  0  0  0  0  0  0
   -2.4972   -0.3135    1.5606 H   0  0  0  0  0  0  0  0  0  0  0  0
   -2.5170   -1.3915   -0.3770 O   0  0  0  0  0  1  0  0  0  0  0  0
  1  3  1  0  0  0  0
  2  1  1  0  0  0  0
  4  5  1  0  0  0  0
  4  7  1  0  0  0  0
  4  1  1  0  0  0  0
  6  4  1  0  0  0  0
  8  1  1  0  0  0  0
  8 11  1  0  0  0  0
  8 10  1  0  0  0  0
  9  8  1  0  0  0  0
 11 13  1  0  0  0  0
 12 11  1  0  0  0  0
 14 11  1  0  0  0  0
M  END
$$$$
Title Card Required
 OpenBabel07152211483D

 14 13  0  0  0  0  0  0  0  0999 V2000
   -0.8944    1.2842    0.1325 C   0  0  0  0  0  0  0  0  0  0  0  0
   -0.6439    2.2037   -0.2273 H   0  0  0  0  0  0  0  0  0  0  0  0
   -0.7122    1.0492    1.2168 H   0  0  0  0  0  0  0  0  0  0  0  0
   -0.1804    0.0719   -0.6150 C   0  0  0  0  0  0  0  0  0  0  0  0
   -0.4526   -0.8814   -0.1994 H   0  0  0  0  0  0  0  0  0  0  0  0
   -0.1111    0.0503   -1.7913 H   0  0  0  0  0  0  0  0  0  0  0  0
    1.6930   -0.0896    0.0575 Br  0  0  0  0  0  0  0  0  0  0  0  0
   -2.5063    1.1051    0.0613 C   0  0  0  0  0  0  0  0  0  0  0  0
   -2.9309    1.4273   -0.9572 H   0  0  0  0  0  0  0  0  0  0  0  0
   -3.1541    1.7825    0.6631 H   0  0  0  0  0  0  0  0  0  0  0  0
   -2.9727   -0.4498    0.4634 C   0  0  0  0  0  0  0  0  0  0  0  0
   -4.2027   -0.2185    0.3896 H   0  0  0  0  0  0  0  0  0  0  0  0
   -2.4771   -0.3536    1.5936 H   0  0  0  0  0  0  0  0  0  0  0  0
   -2.5111   -1.3858   -0.3588 O   0  0  0  0  0  1  0  0  0  0  0  0
  1  3  1  0  0  0  0
  2  1  1  0  0  0  0
  4  5  1  0  0  0  0
  4  7  1  0  0  0  0
  4  1  1  0  0  0  0
  6  4  1  0  0  0  0
  8  1  1  0  0  0  0
  8 11  1  0  0  0  0
  8 10  1  0  0  0  0
  9  8  1  0  0  0  0
 11 13  1  0  0  0  0
 12 11  1  0  0  0  0
 14 11  1  0  0  0  0
M  END
$$$$
Title Card Required
 OpenBabel07152211483D

 14 13  0  0  0  0  0  0  0  0999 V2000
   -0.8789    1.2737    0.1293 C   0  0  0  0  0  0  0  0  0  0  0  0
   -0.6770    2.2213   -0.2003 H   0  0  0  0  0  0  0  0  0  0  0  0
   -0.7230    1.0386    1.1656 H   0  0  0  0  0  0  0  0  0  0  0  0
   -0.1692    0.0910   -0.6262 C   0  0  0  0  0  0  0  0  0  0  0  0
   -0.4219   -0.8781   -0.1902 H   0  0  0  0  0  0  0  0  0  0  0  0
   -0.0846    0.0731   -1.7453 H   0  0  0  0  0  0  0  0  0  0  0  0
    1.6899   -0.0909    0.0574 Br  0  0  0  0  0  0  0  0  0  0  0  0
   -2.5083    1.1113    0.0696 C   0  0  0  0  0  0  0  0  0  0  0  0
   -2.9100    1.3887   -1.0610 H   0  0  0  0  0  0  0  0  0  0  0  0
   -3.2089    1.7187    0.6815 H   0  0  0  0  0  0  0  0  0  0  0  0
   -2.9866   -0.4553    0.4426 C   0  0  0  0  0  0  0  0  0  0  0  0
   -4.1317   -0.2115    0.4284 H   0  0  0  0  0  0  0  0  0  0  0  0
   -2.4917   -0.4134    1.6009 H   0  0  0  0  0  0  0  0  0  0  0  0
   -2.5062   -1.3784   -0.3376 O   0  0  0  0  0  1  0  0  0  0  0  0
  1  3  1  0  0  0  0
  2  1  1  0  0  0  0
  4  5  1  0  0  0  0
  4  7  1  0  0  0  0
  4  1  1  0  0  0  0
  6  4  1  0  0  0  0
  8  1  1  0  0  0  0
  8 11  1  0  0  0  0
  8 10  1  0  0  0  0
  9  8  1  0  0  0  0
 11 13  1  0  0  0  0
 12 11  1  0  0  0  0
 14 11  1  0  0  0  0
M  END
$$$$
Title Card Required
 OpenBabel07152211483D

 14 13  0  0  0  0  0  0  0  0999 V2000
   -0.8707    1.2555    0.1256 C   0  0  0  0  0  0  0  0  0  0  0  0
   -0.6783    2.2973   -0.1885 H   0  0  0  0  0  0  0  0  0  0  0  0
   -0.7171    1.0400    1.1364 H   0  0  0  0  0  0  0  0  0  0  0  0
   -0.1584    0.1105   -0.6357 C   0  0  0  0  0  0  0  0  0  0  0  0
   -0.4221   -0.8684   -0.1993 H   0  0  0  0  0  0  0  0  0  0  0  0
   -0.0663    0.0992   -1.6792 H   0  0  0  0  0  0  0  0  0  0  0  0
    1.6872   -0.0921    0.0572 Br  0  0  0  0  0  0  0  0  0  0  0  0
   -2.5108    1.1152    0.0722 C   0  0  0  0  0  0  0  0  0  0  0  0
   -2.8655    1.3310   -1.1132 H   0  0  0  0  0  0  0  0  0  0  0  0
   -3.2375    1.6677    0.7095 H   0  0  0  0  0  0  0  0  0  0  0  0
   -2.9963   -0.4566    0.4214 C   0  0  0  0  0  0  0  0  0  0  0  0
   -4.0492   -0.2234    0.4823 H   0  0  0  0  0  0  0  0  0  0  0  0
   -2.5407   -0.4800    1.5794 H   0  0  0  0  0  0  0  0  0  0  0  0
   -2.5025   -1.3709   -0.3159 O   0  0  0  0  0  1  0  0  0  0  0  0
  1  3  1  0  0  0  0
  2  1  1  0  0  0  0
  4  5  1  0  0  0  0
  4  7  1  0  0  0  0
  4  1  1  0  0  0  0
  6  4  1  0  0  0  0
  8  1  1  0  0  0  0
  8 11  1  0  0  0  0
  8 10  1  0  0  0  0
  9  8  1  0  0  0  0
 11 12  1  0  0  0  0
 11 13  1  0  0  0  0
 14 11  1  0  0  0  0
M  END
$$$$
Title Card Required
 OpenBabel07152211483D

 14 13  0  0  0  0  0  0  0  0999 V2000
   -0.8694    1.2357    0.1181 C   0  0  0  0  0  0  0  0  0  0  0  0
   -0.6595    2.3709   -0.1728 H   0  0  0  0  0  0  0  0  0  0  0  0
   -0.6896    1.0466    1.1534 H   0  0  0  0  0  0  0  0  0  0  0  0
   -0.1478    0.1304   -0.6389 C   0  0  0  0  0  0  0  0  0  0  0  0
   -0.4521   -0.8443   -0.2324 H   0  0  0  0  0  0  0  0  0  0  0  0
   -0.0506    0.1304   -1.6529 H   0  0  0  0  0  0  0  0  0  0  0  0
    1.6848   -0.0931    0.0571 Br  0  0  0  0  0  0  0  0  0  0  0  0
   -2.5135    1.1153    0.0676 C   0  0  0  0  0  0  0  0  0  0  0  0
   -2.7993    1.2579   -1.0976 H   0  0  0  0  0  0  0  0  0  0  0  0
   -3.2382    1.6333    0.7418 H   0  0  0  0  0  0  0  0  0  0  0  0
   -2.9985   -0.4537    0.4016 C   0  0  0  0  0  0  0  0  0  0  0  0
   -4.0100   -0.2465    0.5459 H   0  0  0  0  0  0  0  0  0  0  0  0
   -2.6203   -0.5452    1.5355 H   0  0  0  0  0  0  0  0  0  0  0  0
   -2.4993   -1.3645   -0.2945 O   0  0  0  0  0  1  0  0  0  0  0  0
  1  3  1  0  0  0  0
  2  1  1  0  0  0  0
  4  5  1  0  0  0  0
  4  7  1  0  0  0  0
  4  1  1  0  0  0  0
  6  4  1  0  0  0  0
  8  1  1  0  0  0  0
  8 11  1  0  0  0  0
  8 10  1  0  0  0  0
  9  8  1  0  0  0  0
 11 12  1  0  0  0  0
 11 13  1  0  0  0  0
 14 11  1  0  0  0  0
M  END
$$$$
Title Card Required
 OpenBabel07152211483D

 14 13  0  0  0  0  0  0  0  0999 V2000
   -0.8744    1.2209    0.1094 C   0  0  0  0  0  0  0  0  0  0  0  0
   -0.6317    2.3897   -0.1466 H   0  0  0  0  0  0  0  0  0  0  0  0
   -0.6481    1.0585    1.1964 H   0  0  0  0  0  0  0  0  0  0  0  0
   -0.1385    0.1483   -0.6341 C   0  0  0  0  0  0  0  0  0  0  0  0
   -0.5070   -0.8121   -0.2841 H   0  0  0  0  0  0  0  0  0  0  0  0
   -0.0361    0.1657   -1.6970 H   0  0  0  0  0  0  0  0  0  0  0  0
    1.6828   -0.0939    0.0569 Br  0  0  0  0  0  0  0  0  0  0  0  0
   -2.5153    1.1107    0.0572 C   0  0  0  0  0  0  0  0  0  0  0  0
   -2.7301    1.1871   -1.0244 H   0  0  0  0  0  0  0  0  0  0  0  0
   -3.2098    1.6215    0.7680 H   0  0  0  0  0  0  0  0  0  0  0  0
   -2.9925   -0.4458    0.3870 C   0  0  0  0  0  0  0  0  0  0  0  0
   -4.0529   -0.2715    0.6044 H   0  0  0  0  0  0  0  0  0  0  0  0
   -2.7086   -0.5936    1.4913 H   0  0  0  0  0  0  0  0  0  0  0  0
   -2.4959   -1.3615   -0.2775 O   0  0  0  0  0  1  0  0  0  0  0  0
  1  3  1  0  0  0  0
  2  1  1  0  0  0  0
  4  5  1  0  0  0  0
  4  7  1  0  0  0  0
  4  1  1  0  0  0  0
  6  4  1  0  0  0  0
  8  1  1  0  0  0  0
  8 11  1  0  0  0  0
  8 10  1  0  0  0  0
  9  8  1  0  0  0  0
 11 12  1  0  0  0  0
 11 13  1  0  0  0  0
 14 11  1  0  0  0  0
M  END
$$$$
Title Card Required
 OpenBabel07152211483D

 14 13  0  0  0  0  0  0  0  0999 V2000
   -0.8836    1.2127    0.1035 C   0  0  0  0  0  0  0  0  0  0  0  0
   -0.6033    2.3476   -0.1133 H   0  0  0  0  0  0  0  0  0  0  0  0
   -0.6058    1.0767    1.2259 H   0  0  0  0  0  0  0  0  0  0  0  0
   -0.1298    0.1642   -0.6268 C   0  0  0  0  0  0  0  0  0  0  0  0
   -0.5792   -0.7833   -0.3457 H   0  0  0  0  0  0  0  0  0  0  0  0
   -0.0253    0.2059   -1.7613 H   0  0  0  0  0  0  0  0  0  0  0  0
    1.6813   -0.0946    0.0567 Br  0  0  0  0  0  0  0  0  0  0  0  0
   -2.5145    1.1009    0.0466 C   0  0  0  0  0  0  0  0  0  0  0  0
   -2.6779    1.1311   -0.9531 H   0  0  0  0  0  0  0  0  0  0  0  0
   -3.1586    1.6299    0.7819 H   0  0  0  0  0  0  0  0  0  0  0  0
   -2.9836   -0.4327    0.3789 C   0  0  0  0  0  0  0  0  0  0  0  0
   -4.1385   -0.2983    0.6421 H   0  0  0  0  0  0  0  0  0  0  0  0
   -2.7887   -0.6212    1.4683 H   0  0  0  0  0  0  0  0  0  0  0  0
   -2.4918   -1.3629   -0.2661 O   0  0  0  0  0  1  0  0  0  0  0  0
  1  3  1  0  0  0  0
  2  1  1  0  0  0  0
  4  5  1  0  0  0  0
  4  7  1  0  0  0  0
  4  1  1  0  0  0  0
  6  4  1  0  0  0  0
  8  1  1  0  0  0  0
  8 11  1  0  0  0  0
  8 10  1  0  0  0  0
  9  8  1  0  0  0  0
 11 12  1  0  0  0  0
 11 13  1  0  0  0  0
 14 11  1  0  0  0  0
M  END
$$$$
Title Card Required
 OpenBabel07152211483D

 14 13  0  0  0  0  0  0  0  0999 V2000
   -0.8962    1.2101    0.1030 C   0  0  0  0  0  0  0  0  0  0  0  0
   -0.5768    2.2552   -0.0772 H   0  0  0  0  0  0  0  0  0  0  0  0
   -0.5704    1.1005    1.2223 H   0  0  0  0  0  0  0  0  0  0  0  0
   -0.1208    0.1790   -0.6218 C   0  0  0  0  0  0  0  0  0  0  0  0
   -0.6663   -0.7608   -0.4178 H   0  0  0  0  0  0  0  0  0  0  0  0
   -0.0200    0.2542   -1.8007 H   0  0  0  0  0  0  0  0  0  0  0  0
    1.6799   -0.0952    0.0566 Br  0  0  0  0  0  0  0  0  0  0  0  0
   -2.5095    1.0845    0.0413 C   0  0  0  0  0  0  0  0  0  0  0  0
   -2.6575    1.0940   -0.9555 H   0  0  0  0  0  0  0  0  0  0  0  0
   -3.0870    1.6589    0.7806 H   0  0  0  0  0  0  0  0  0  0  0  0
   -2.9756   -0.4137    0.3776 C   0  0  0  0  0  0  0  0  0  0  0  0
   -4.2318   -0.3269    0.6477 H   0  0  0  0  0  0  0  0  0  0  0  0
   -2.8582   -0.6278    1.4765 H   0  0  0  0  0  0  0  0  0  0  0  0
   -2.4861   -1.3686   -0.2595 O   0  0  0  0  0  1  0  0  0  0  0  0
  1  3  1  0  0  0  0
  2  1  1  0  0  0  0
  4  5  1  0  0  0  0
  4  7  1  0  0  0  0
  4  1  1  0  0  0  0
  6  4  1  0  0  0  0
  8  1  1  0  0  0  0
  8 11  1  0  0  0  0
  8 10  1  0  0  0  0
  9  8  1  0  0  0  0
 11 12  1  0  0  0  0
 11 13  1  0  0  0  0
 14 11  1  0  0  0  0
M  END
$$$$
Title Card Required
 OpenBabel07152211483D

 14 13  0  0  0  0  0  0  0  0999 V2000
   -0.9102    1.2103    0.1091 C   0  0  0  0  0  0  0  0  0  0  0  0
   -0.5518    2.1672   -0.0536 H   0  0  0  0  0  0  0  0  0  0  0  0
   -0.5522    1.1221    1.1865 H   0  0  0  0  0  0  0  0  0  0  0  0
   -0.1133    0.1906   -0.6220 C   0  0  0  0  0  0  0  0  0  0  0  0
   -0.7461   -0.7425   -0.4909 H   0  0  0  0  0  0  0  0  0  0  0  0
   -0.0197    0.3049   -1.7896 H   0  0  0  0  0  0  0  0  0  0  0  0
    1.6787   -0.0957    0.0565 Br  0  0  0  0  0  0  0  0  0  0  0  0
   -2.5005    1.0637    0.0425 C   0  0  0  0  0  0  0  0  0  0  0  0
   -2.6725    1.0821   -1.0369 H   0  0  0  0  0  0  0  0  0  0  0  0
   -3.0118    1.7055    0.7652 H   0  0  0  0  0  0  0  0  0  0  0  0
   -2.9712   -0.3931    0.3830 C   0  0  0  0  0  0  0  0  0  0  0  0
   -4.2998   -0.3494    0.6166 H   0  0  0  0  0  0  0  0  0  0  0  0
   -2.9076   -0.6114    1.5084 H   0  0  0  0  0  0  0  0  0  0  0  0
   -2.4798   -1.3766   -0.2575 O   0  0  0  0  0  1  0  0  0  0  0  0
  1  3  1  0  0  0  0
  2  1  1  0  0  0  0
  4  5  1  0  0  0  0
  4  7  1  0  0  0  0
  4  1  1  0  0  0  0
  6  4  1  0  0  0  0
  8  1  1  0  0  0  0
  8 11  1  0  0  0  0
  8 10  1  0  0  0  0
  9  8  1  0  0  0  0
 11 12  1  0  0  0  0
 11 13  1  0  0  0  0
 14 11  1  0  0  0  0
M  END
$$$$
Title Card Required
 OpenBabel07152211483D

 14 13  0  0  0  0  0  0  0  0999 V2000
   -0.9255    1.2086    0.1203 C   0  0  0  0  0  0  0  0  0  0  0  0
   -0.5185    2.1348   -0.0520 H   0  0  0  0  0  0  0  0  0  0  0  0
   -0.5499    1.1360    1.1395 H   0  0  0  0  0  0  0  0  0  0  0  0
   -0.1082    0.1989   -0.6269 C   0  0  0  0  0  0  0  0  0  0  0  0
   -0.8086   -0.7219   -0.5633 H   0  0  0  0  0  0  0  0  0  0  0  0
   -0.0205    0.3588   -1.7366 H   0  0  0  0  0  0  0  0  0  0  0  0
    1.6777   -0.0962    0.0564 Br  0  0  0  0  0  0  0  0  0  0  0  0
   -2.4884    1.0397    0.0437 C   0  0  0  0  0  0  0  0  0  0  0  0
   -2.7055    1.0899   -1.1246 H   0  0  0  0  0  0  0  0  0  0  0  0
   -2.9394    1.7667    0.7382 H   0  0  0  0  0  0  0  0  0  0  0  0
   -2.9703   -0.3736    0.3940 C   0  0  0  0  0  0  0  0  0  0  0  0
   -4.3342   -0.3625    0.5546 H   0  0  0  0  0  0  0  0  0  0  0  0
   -2.9405   -0.5738    1.5467 H   0  0  0  0  0  0  0  0  0  0  0  0
   -2.4732   -1.3853   -0.2580 O   0  0  0  0  0  1  0  0  0  0  0  0
  1  3  1  0  0  0  0
  2  1  1  0  0  0  0
  4  5  1  0  0  0  0
  4  7  1  0  0  0  0
  4  1  1  0  0  0  0
  6  4  1  0  0  0  0
  8  1  1  0  0  0  0
  8 11  1  0  0  0  0
  8 10  1  0  0  0  0
  9  8  1  0  0  0  0
 11 12  1  0  0  0  0
 11 13  1  0  0  0  0
 14 11  1  0  0  0  0
M  END
$$$$
Title Card Required
 OpenBabel07152211483D

 14 13  0  0  0  0  0  0  0  0999 V2000
   -0.9418    1.2039    0.1340 C   0  0  0  0  0  0  0  0  0  0  0  0
   -0.4798    2.1663   -0.0741 H   0  0  0  0  0  0  0  0  0  0  0  0
   -0.5576    1.1378    1.1119 H   0  0  0  0  0  0  0  0  0  0  0  0
   -0.1067    0.2039   -0.6349 C   0  0  0  0  0  0  0  0  0  0  0  0
   -0.8468   -0.6971   -0.6316 H   0  0  0  0  0  0  0  0  0  0  0  0
   -0.0173    0.4198   -1.6685 H   0  0  0  0  0  0  0  0  0  0  0  0
    1.6767   -0.0966    0.0563 Br  0  0  0  0  0  0  0  0  0  0  0  0
   -2.4744    1.0147    0.0413 C   0  0  0  0  0  0  0  0  0  0  0  0
   -2.7422    1.1108   -1.1711 H   0  0  0  0  0  0  0  0  0  0  0  0
   -2.8726    1.8341    0.6976 H   0  0  0  0  0  0  0  0  0  0  0  0
   -2.9732   -0.3576    0.4096 C   0  0  0  0  0  0  0  0  0  0  0  0
   -4.3273   -0.3636    0.4672 H   0  0  0  0  0  0  0  0  0  0  0  0
   -2.9588   -0.5171    1.5775 H   0  0  0  0  0  0  0  0  0  0  0  0
   -2.4667   -1.3931   -0.2596 O   0  0  0  0  0  1  0  0  0  0  0  0
  1  3  1  0  0  0  0
  2  1  1  0  0  0  0
  4  5  1  0  0  0  0
  4  7  1  0  0  0  0
  4  1  1  0  0  0  0
  6  4  1  0  0  0  0
  8  1  1  0  0  0  0
  8 11  1  0  0  0  0
  8 10  1  0  0  0  0
  9  8  1  0  0  0  0
 11 12  1  0  0  0  0
 11 13  1  0  0  0  0
 14 11  1  0  0  0  0
M  END
$$$$
Title Card Required
 OpenBabel07152211483D

 14 13  0  0  0  0  0  0  0  0999 V2000
   -0.9563    1.1990    0.1467 C   0  0  0  0  0  0  0  0  0  0  0  0
   -0.4571    2.2227   -0.1091 H   0  0  0  0  0  0  0  0  0  0  0  0
   -0.5689    1.1265    1.1282 H   0  0  0  0  0  0  0  0  0  0  0  0
   -0.1095    0.2055   -0.6425 C   0  0  0  0  0  0  0  0  0  0  0  0
   -0.8576   -0.6725   -0.6903 H   0  0  0  0  0  0  0  0  0  0  0  0
   -0.0037    0.4947   -1.6273 H   0  0  0  0  0  0  0  0  0  0  0  0
    1.6758   -0.0971    0.0562 Br  0  0  0  0  0  0  0  0  0  0  0  0
   -2.4599    0.9921    0.0343 C   0  0  0  0  0  0  0  0  0  0  0  0
   -2.7715    1.1371   -1.1577 H   0  0  0  0  0  0  0  0  0  0  0  0
   -2.8145    1.8930    0.6415 H   0  0  0  0  0  0  0  0  0  0  0  0
   -2.9801   -0.3471    0.4280 C   0  0  0  0  0  0  0  0  0  0  0  0
   -4.2732   -0.3508    0.3648 H   0  0  0  0  0  0  0  0  0  0  0  0
   -2.9635   -0.4471    1.5934 H   0  0  0  0  0  0  0  0  0  0  0  0
   -2.4604   -1.3991   -0.2610 O   0  0  0  0  0  1  0  0  0  0  0  0
  1  3  1  0  0  0  0
  2  1  1  0  0  0  0
  4  7  1  0  0  0  0
  4  1  1  0  0  0  0
  5  4  1  0  0  0  0
  6  4  1  0  0  0  0
  8  1  1  0  0  0  0
  8 11  1  0  0  0  0
  8 10  1  0  0  0  0
  9  8  1  0  0  0  0
 11 13  1  0  0  0  0
 12 11  1  0  0  0  0
 14 11  1  0  0  0  0
M  END
$$$$
Title Card Required
 OpenBabel07152211483D

 14 13  0  0  0  0  0  0  0  0999 V2000
   -0.9660    1.1960    0.1566 C   0  0  0  0  0  0  0  0  0  0  0  0
   -0.4658    2.2640   -0.1414 H   0  0  0  0  0  0  0  0  0  0  0  0
   -0.5838    1.1070    1.1800 H   0  0  0  0  0  0  0  0  0  0  0  0
   -0.1161    0.2046   -0.6480 C   0  0  0  0  0  0  0  0  0  0  0  0
   -0.8448   -0.6557   -0.7351 H   0  0  0  0  0  0  0  0  0  0  0  0
    0.0216    0.5828   -1.6316 H   0  0  0  0  0  0  0  0  0  0  0  0
    1.6749   -0.0975    0.0561 Br  0  0  0  0  0  0  0  0  0  0  0  0
   -2.4467    0.9754    0.0234 C   0  0  0  0  0  0  0  0  0  0  0  0
   -2.7859    1.1599   -1.0914 H   0  0  0  0  0  0  0  0  0  0  0  0
   -2.7700    1.9297    0.5758 H   0  0  0  0  0  0  0  0  0  0  0  0
   -2.9906   -0.3426    0.4461 C   0  0  0  0  0  0  0  0  0  0  0  0
   -4.1798   -0.3262    0.2651 H   0  0  0  0  0  0  0  0  0  0  0  0
   -2.9577   -0.3755    1.5954 H   0  0  0  0  0  0  0  0  0  0  0  0
   -2.4549   -1.4025   -0.2614 O   0  0  0  0  0  1  0  0  0  0  0  0
  1  3  1  0  0  0  0
  2  1  1  0  0  0  0
  4  7  1  0  0  0  0
  4  1  1  0  0  0  0
  5  4  1  0  0  0  0
  6  4  1  0  0  0  0
  8  1  1  0  0  0  0
  8 11  1  0  0  0  0
  8 10  1  0  0  0  0
  9  8  1  0  0  0  0
 11 13  1  0  0  0  0
 12 11  1  0  0  0  0
 14 11  1  0  0  0  0
M  END
$$$$
Title Card Required
 OpenBabel07152211483D

 14 13  0  0  0  0  0  0  0  0999 V2000
   -0.9699    1.1951    0.1649 C   0  0  0  0  0  0  0  0  0  0  0  0
   -0.5054    2.2757   -0.1625 H   0  0  0  0  0  0  0  0  0  0  0  0
   -0.6076    1.0851    1.2392 H   0  0  0  0  0  0  0  0  0  0  0  0
   -0.1251    0.2032   -0.6532 C   0  0  0  0  0  0  0  0  0  0  0  0
   -0.8175   -0.6526   -0.7680 H   0  0  0  0  0  0  0  0  0  0  0  0
    0.0536    0.6736   -1.6560 H   0  0  0  0  0  0  0  0  0  0  0  0
    1.6740   -0.0980    0.0561 Br  0  0  0  0  0  0  0  0  0  0  0  0
   -2.4349    0.9650    0.0104 C   0  0  0  0  0  0  0  0  0  0  0  0
   -2.7868    1.1759   -0.9994 H   0  0  0  0  0  0  0  0  0  0  0  0
   -2.7404    1.9435    0.5082 H   0  0  0  0  0  0  0  0  0  0  0  0
   -3.0027   -0.3428    0.4622 C   0  0  0  0  0  0  0  0  0  0  0  0
   -4.0689   -0.2935    0.1774 H   0  0  0  0  0  0  0  0  0  0  0  0
   -2.9464   -0.3099    1.5912 H   0  0  0  0  0  0  0  0  0  0  0  0
   -2.4500   -1.4040   -0.2604 O   0  0  0  0  0  1  0  0  0  0  0  0
  1  3  1  0  0  0  0
  2  1  1  0  0  0  0
  4  7  1  0  0  0  0
  4  1  1  0  0  0  0
  5  4  1  0  0  0  0
  6  4  1  0  0  0  0
  8  1  1  0  0  0  0
  8 11  1  0  0  0  0
  8 10  1  0  0  0  0
  9  8  1  0  0  0  0
 11 13  1  0  0  0  0
 12 11  1  0  0  0  0
 14 11  1  0  0  0  0
M  END
$$$$
Title Card Required
 OpenBabel07152211483D

 14 13  0  0  0  0  0  0  0  0999 V2000
   -0.9677    1.1958    0.1740 C   0  0  0  0  0  0  0  0  0  0  0  0
   -0.5780    2.2530   -0.1689 H   0  0  0  0  0  0  0  0  0  0  0  0
   -0.6480    1.0628    1.2896 H   0  0  0  0  0  0  0  0  0  0  0  0
   -0.1359    0.2035   -0.6608 C   0  0  0  0  0  0  0  0  0  0  0  0
   -0.7801   -0.6695   -0.7949 H   0  0  0  0  0  0  0  0  0  0  0  0
    0.0887    0.7619   -1.6731 H   0  0  0  0  0  0  0  0  0  0  0  0
    1.6730   -0.0985    0.0560 Br  0  0  0  0  0  0  0  0  0  0  0  0
   -2.4224    0.9593   -0.0031 C   0  0  0  0  0  0  0  0  0  0  0  0
   -2.7838    1.1888   -0.9184 H   0  0  0  0  0  0  0  0  0  0  0  0
   -2.7261    1.9394    0.4410 H   0  0  0  0  0  0  0  0  0  0  0  0
   -3.0145   -0.3465    0.4770 C   0  0  0  0  0  0  0  0  0  0  0  0
   -3.9680   -0.2512    0.0927 H   0  0  0  0  0  0  0  0  0  0  0  0
   -2.9331   -0.2489    1.5884 H   0  0  0  0  0  0  0  0  0  0  0  0
   -2.4449   -1.4038   -0.2576 O   0  0  0  0  0  1  0  0  0  0  0  0
  1  3  1  0  0  0  0
  2  1  1  0  0  0  0
  4  7  1  0  0  0  0
  4  1  1  0  0  0  0
  5  4  1  0  0  0  0
  6  4  1  0  0  0  0
  8  1  1  0  0  0  0
  8 10  1  0  0  0  0
  8 11  1  0  0  0  0
  9  8  1  0  0  0  0
 11 13  1  0  0  0  0
 12 11  1  0  0  0  0
 14 11  1  0  0  0  0
M  END
$$$$
Title Card Required
 OpenBabel07152211483D

 14 13  0  0  0  0  0  0  0  0999 V2000
   -0.9581    1.1970    0.1858 C   0  0  0  0  0  0  0  0  0  0  0  0
   -0.6865    2.1933   -0.1544 H   0  0  0  0  0  0  0  0  0  0  0  0
   -0.7128    1.0428    1.3121 H   0  0  0  0  0  0  0  0  0  0  0  0
   -0.1483    0.2089   -0.6742 C   0  0  0  0  0  0  0  0  0  0  0  0
   -0.7335   -0.7158   -0.8184 H   0  0  0  0  0  0  0  0  0  0  0  0
    0.1202    0.8332   -1.6564 H   0  0  0  0  0  0  0  0  0  0  0  0
    1.6718   -0.0992    0.0560 Br  0  0  0  0  0  0  0  0  0  0  0  0
   -2.4062    0.9574   -0.0129 C   0  0  0  0  0  0  0  0  0  0  0  0
   -2.7950    1.2054   -0.9219 H   0  0  0  0  0  0  0  0  0  0  0  0
   -2.7370    1.9240    0.3866 H   0  0  0  0  0  0  0  0  0  0  0  0
   -3.0214   -0.3540    0.4902 C   0  0  0  0  0  0  0  0  0  0  0  0
   -3.9335   -0.1942   -0.0011 H   0  0  0  0  0  0  0  0  0  0  0  0
   -2.9238   -0.1971    1.5942 H   0  0  0  0  0  0  0  0  0  0  0  0
   -2.4392   -1.4018   -0.2515 O   0  0  0  0  0  1  0  0  0  0  0  0
  1  3  1  0  0  0  0
  2  1  1  0  0  0  0
  4  7  1  0  0  0  0
  4  1  1  0  0  0  0
  5  4  1  0  0  0  0
  6  4  1  0  0  0  0
  8  1  1  0  0  0  0
  8 10  1  0  0  0  0
  8 11  1  0  0  0  0
  9  8  1  0  0  0  0
 11 13  1  0  0  0  0
 12 11  1  0  0  0  0
 14 11  1  0  0  0  0
M  END
$$$$
Title Card Required
 OpenBabel07152211483D

 14 13  0  0  0  0  0  0  0  0999 V2000
   -0.9450    1.1940    0.1989 C   0  0  0  0  0  0  0  0  0  0  0  0
   -0.7853    2.1522   -0.1310 H   0  0  0  0  0  0  0  0  0  0  0  0
   -0.7820    1.0324    1.2948 H   0  0  0  0  0  0  0  0  0  0  0  0
   -0.1586    0.2194   -0.6914 C   0  0  0  0  0  0  0  0  0  0  0  0
   -0.6874   -0.7696   -0.8334 H   0  0  0  0  0  0  0  0  0  0  0  0
    0.1330    0.8574   -1.5996 H   0  0  0  0  0  0  0  0  0  0  0  0
    1.6707   -0.0999    0.0560 Br  0  0  0  0  0  0  0  0  0  0  0  0
   -2.3901    0.9590   -0.0171 C   0  0  0  0  0  0  0  0  0  0  0  0
   -2.8135    1.2154   -1.0218 H   0  0  0  0  0  0  0  0  0  0  0  0
   -2.7772    1.9114    0.3724 H   0  0  0  0  0  0  0  0  0  0  0  0
   -3.0209   -0.3624    0.4962 C   0  0  0  0  0  0  0  0  0  0  0  0
   -3.9817   -0.1392   -0.0716 H   0  0  0  0  0  0  0  0  0  0  0  0
   -2.9285   -0.1733    1.6083 H   0  0  0  0  0  0  0  0  0  0  0  0
   -2.4342   -1.3985   -0.2422 O   0  0  0  0  0  1  0  0  0  0  0  0
  1  3  1  0  0  0  0
  2  1  1  0  0  0  0
  4  7  1  0  0  0  0
  4  1  1  0  0  0  0
  5  4  1  0  0  0  0
  6  4  1  0  0  0  0
  8  1  1  0  0  0  0
  8 10  1  0  0  0  0
  8 11  1  0  0  0  0
  9  8  1  0  0  0  0
 11 13  1  0  0  0  0
 12 11  1  0  0  0  0
 14 11  1  0  0  0  0
M  END
$$$$
Title Card Required
 OpenBabel07152211483D

 14 13  0  0  0  0  0  0  0  0999 V2000
   -0.9309    1.1828    0.2130 C   0  0  0  0  0  0  0  0  0  0  0  0
   -0.8566    2.1789   -0.1130 H   0  0  0  0  0  0  0  0  0  0  0  0
   -0.8443    1.0281    1.2636 H   0  0  0  0  0  0  0  0  0  0  0  0
   -0.1673    0.2330   -0.7108 C   0  0  0  0  0  0  0  0  0  0  0  0
   -0.6374   -0.8052   -0.8409 H   0  0  0  0  0  0  0  0  0  0  0  0
    0.1301    0.8467   -1.5263 H   0  0  0  0  0  0  0  0  0  0  0  0
    1.6695   -0.1007    0.0560 Br  0  0  0  0  0  0  0  0  0  0  0  0
   -2.3773    0.9645   -0.0219 C   0  0  0  0  0  0  0  0  0  0  0  0
   -2.8054    1.2016   -1.1403 H   0  0  0  0  0  0  0  0  0  0  0  0
   -2.8419    1.8996    0.3922 H   0  0  0  0  0  0  0  0  0  0  0  0
   -3.0169   -0.3704    0.4921 C   0  0  0  0  0  0  0  0  0  0  0  0
   -4.0593   -0.0965   -0.0914 H   0  0  0  0  0  0  0  0  0  0  0  0
   -2.9503   -0.1786    1.6240 H   0  0  0  0  0  0  0  0  0  0  0  0
   -2.4299   -1.3937   -0.2287 O   0  0  0  0  0  1  0  0  0  0  0  0
  1  3  1  0  0  0  0
  2  1  1  0  0  0  0
  4  7  1  0  0  0  0
  4  1  1  0  0  0  0
  5  4  1  0  0  0  0
  6  4  1  0  0  0  0
  8  1  1  0  0  0  0
  8 10  1  0  0  0  0
  8 11  1  0  0  0  0
  9  8  1  0  0  0  0
 11 13  1  0  0  0  0
 12 11  1  0  0  0  0
 14 11  1  0  0  0  0
M  END
$$$$
Title Card Required
 OpenBabel07152211483D

 14 13  0  0  0  0  0  0  0  0999 V2000
   -0.9179    1.1661    0.2237 C   0  0  0  0  0  0  0  0  0  0  0  0
   -0.8907    2.2554   -0.0928 H   0  0  0  0  0  0  0  0  0  0  0  0
   -0.8850    1.0221    1.2642 H   0  0  0  0  0  0  0  0  0  0  0  0
   -0.1751    0.2455   -0.7268 C   0  0  0  0  0  0  0  0  0  0  0  0
   -0.5848   -0.7995   -0.8421 H   0  0  0  0  0  0  0  0  0  0  0  0
    0.1261    0.8360   -1.4967 H   0  0  0  0  0  0  0  0  0  0  0  0
    1.6683   -0.1016    0.0561 Br  0  0  0  0  0  0  0  0  0  0  0  0
   -2.3718    0.9743   -0.0309 C   0  0  0  0  0  0  0  0  0  0  0  0
   -2.7498    1.1572   -1.2163 H   0  0  0  0  0  0  0  0  0  0  0  0
   -2.9170    1.8745    0.4320 H   0  0  0  0  0  0  0  0  0  0  0  0
   -3.0113   -0.3768    0.4754 C   0  0  0  0  0  0  0  0  0  0  0  0
   -4.1287   -0.0775   -0.0416 H   0  0  0  0  0  0  0  0  0  0  0  0
   -2.9894   -0.2156    1.6296 H   0  0  0  0  0  0  0  0  0  0  0  0
   -2.4266   -1.3874   -0.2100 O   0  0  0  0  0  1  0  0  0  0  0  0
  1  3  1  0  0  0  0
  2  1  1  0  0  0  0
  4  7  1  0  0  0  0
  4  1  1  0  0  0  0
  5  4  1  0  0  0  0
  6  4  1  0  0  0  0
  8  1  1  0  0  0  0
  8 10  1  0  0  0  0
  8 11  1  0  0  0  0
  9  8  1  0  0  0  0
 11 13  1  0  0  0  0
 12 11  1  0  0  0  0
 14 11  1  0  0  0  0
M  END
$$$$
Title Card Required
 OpenBabel07152211483D

 14 13  0  0  0  0  0  0  0  0999 V2000
   -0.9092    1.1526    0.2275 C   0  0  0  0  0  0  0  0  0  0  0  0
   -0.8849    2.3083   -0.0578 H   0  0  0  0  0  0  0  0  0  0  0  0
   -0.8949    1.0098    1.3069 H   0  0  0  0  0  0  0  0  0  0  0  0
   -0.1808    0.2534   -0.7338 C   0  0  0  0  0  0  0  0  0  0  0  0
   -0.5446   -0.7624   -0.8426 H   0  0  0  0  0  0  0  0  0  0  0  0
    0.1334    0.8530   -1.5469 H   0  0  0  0  0  0  0  0  0  0  0  0
    1.6674   -0.1024    0.0562 Br  0  0  0  0  0  0  0  0  0  0  0  0
   -2.3752    0.9859   -0.0431 C   0  0  0  0  0  0  0  0  0  0  0  0
   -2.6618    1.0970   -1.2189 H   0  0  0  0  0  0  0  0  0  0  0  0
   -2.9754    1.8318    0.4676 H   0  0  0  0  0  0  0  0  0  0  0  0
   -3.0062   -0.3802    0.4510 C   0  0  0  0  0  0  0  0  0  0  0  0
   -4.1651   -0.0851    0.0565 H   0  0  0  0  0  0  0  0  0  0  0  0
   -3.0336   -0.2712    1.6174 H   0  0  0  0  0  0  0  0  0  0  0  0
   -2.4249   -1.3809   -0.1897 O   0  0  0  0  0  1  0  0  0  0  0  0
  1  3  1  0  0  0  0
  2  1  1  0  0  0  0
  4  7  1  0  0  0  0
  4  1  1  0  0  0  0
  5  4  1  0  0  0  0
  6  4  1  0  0  0  0
  8  1  1  0  0  0  0
  8 11  1  0  0  0  0
  8 10  1  0  0  0  0
  9  8  1  0  0  0  0
 11 13  1  0  0  0  0
 12 11  1  0  0  0  0
 14 11  1  0  0  0  0
M  END
$$$$
Title Card Required
 OpenBabel07152211483D

 14 13  0  0  0  0  0  0  0  0999 V2000
   -0.9050    1.1448    0.2284 C   0  0  0  0  0  0  0  0  0  0  0  0
   -0.8525    2.3155   -0.0118 H   0  0  0  0  0  0  0  0  0  0  0  0
   -0.8828    0.9942    1.3513 H   0  0  0  0  0  0  0  0  0  0  0  0
   -0.1828    0.2606   -0.7359 C   0  0  0  0  0  0  0  0  0  0  0  0
   -0.5253   -0.7288   -0.8466 H   0  0  0  0  0  0  0  0  0  0  0  0
    0.1385    0.8720   -1.6239 H   0  0  0  0  0  0  0  0  0  0  0  0
    1.6666   -0.1031    0.0562 Br  0  0  0  0  0  0  0  0  0  0  0  0
   -2.3837    0.9968   -0.0557 C   0  0  0  0  0  0  0  0  0  0  0  0
   -2.5693    1.0382   -1.1739 H   0  0  0  0  0  0  0  0  0  0  0  0
   -3.0110    1.7817    0.4886 H   0  0  0  0  0  0  0  0  0  0  0  0
   -3.0025   -0.3809    0.4251 C   0  0  0  0  0  0  0  0  0  0  0  0
   -4.1733   -0.1098    0.1659 H   0  0  0  0  0  0  0  0  0  0  0  0
   -3.0717   -0.3295    1.5931 H   0  0  0  0  0  0  0  0  0  0  0  0
   -2.4241   -1.3753   -0.1703 O   0  0  0  0  0  1  0  0  0  0  0  0
  1  3  1  0  0  0  0
  2  1  1  0  0  0  0
  4  7  1  0  0  0  0
  4  1  1  0  0  0  0
  5  4  1  0  0  0  0
  6  4  1  0  0  0  0
  8  1  1  0  0  0  0
  8 11  1  0  0  0  0
  8 10  1  0  0  0  0
  9  8  1  0  0  0  0
 11 13  1  0  0  0  0
 12 11  1  0  0  0  0
 14 11  1  0  0  0  0
M  END
$$$$
Title Card Required
 OpenBabel07152211483D

 14 13  0  0  0  0  0  0  0  0999 V2000
   -0.9040    1.1414    0.2297 C   0  0  0  0  0  0  0  0  0  0  0  0
   -0.8000    2.2845    0.0436 H   0  0  0  0  0  0  0  0  0  0  0  0
   -0.8552    0.9758    1.3766 H   0  0  0  0  0  0  0  0  0  0  0  0
   -0.1804    0.2707   -0.7370 C   0  0  0  0  0  0  0  0  0  0  0  0
   -0.5270   -0.7150   -0.8557 H   0  0  0  0  0  0  0  0  0  0  0  0
    0.1315    0.8748   -1.6945 H   0  0  0  0  0  0  0  0  0  0  0  0
    1.6659   -0.1038    0.0563 Br  0  0  0  0  0  0  0  0  0  0  0  0
   -2.3952    1.0067   -0.0672 C   0  0  0  0  0  0  0  0  0  0  0  0
   -2.4808    0.9838   -1.1166 H   0  0  0  0  0  0  0  0  0  0  0  0
   -3.0318    1.7300    0.4966 H   0  0  0  0  0  0  0  0  0  0  0  0
   -3.0001   -0.3795    0.3985 C   0  0  0  0  0  0  0  0  0  0  0  0
   -4.1655   -0.1466    0.2757 H   0  0  0  0  0  0  0  0  0  0  0  0
   -3.1016   -0.3875    1.5616 H   0  0  0  0  0  0  0  0  0  0  0  0
   -2.4237   -1.3707   -0.1511 O   0  0  0  0  0  1  0  0  0  0  0  0
  1  3  1  0  0  0  0
  2  1  1  0  0  0  0
  4  7  1  0  0  0  0
  4  1  1  0  0  0  0
  5  4  1  0  0  0  0
  6  4  1  0  0  0  0
  8  1  1  0  0  0  0
  8 11  1  0  0  0  0
  8 10  1  0  0  0  0
  9  8  1  0  0  0  0
 11 13  1  0  0  0  0
 12 11  1  0  0  0  0
 14 11  1  0  0  0  0
M  END
$$$$
Title Card Required
 OpenBabel07152211483D

 14 13  0  0  0  0  0  0  0  0999 V2000
   -0.9063    1.1413    0.2333 C   0  0  0  0  0  0  0  0  0  0  0  0
   -0.7273    2.2236    0.1070 H   0  0  0  0  0  0  0  0  0  0  0  0
   -0.8137    0.9528    1.3723 H   0  0  0  0  0  0  0  0  0  0  0  0
   -0.1731    0.2849   -0.7387 C   0  0  0  0  0  0  0  0  0  0  0  0
   -0.5494   -0.7212   -0.8698 H   0  0  0  0  0  0  0  0  0  0  0  0
    0.1078    0.8537   -1.7428 H   0  0  0  0  0  0  0  0  0  0  0  0
    1.6652   -0.1045    0.0562 Br  0  0  0  0  0  0  0  0  0  0  0  0
   -2.4087    1.0150   -0.0749 C   0  0  0  0  0  0  0  0  0  0  0  0
   -2.4027    0.9346   -1.0897 H   0  0  0  0  0  0  0  0  0  0  0  0
   -3.0452    1.6850    0.4926 H   0  0  0  0  0  0  0  0  0  0  0  0
   -2.9989   -0.3755    0.3716 C   0  0  0  0  0  0  0  0  0  0  0  0
   -4.1511   -0.1939    0.3771 H   0  0  0  0  0  0  0  0  0  0  0  0
   -3.1185   -0.4418    1.5285 H   0  0  0  0  0  0  0  0  0  0  0  0
   -2.4228   -1.3677   -0.1320 O   0  0  0  0  0  1  0  0  0  0  0  0
  1  3  1  0  0  0  0
  2  1  1  0  0  0  0
  4  7  1  0  0  0  0
  4  1  1  0  0  0  0
  5  4  1  0  0  0  0
  6  4  1  0  0  0  0
  8  1  1  0  0  0  0
  8 11  1  0  0  0  0
  8 10  1  0  0  0  0
  9  8  1  0  0  0  0
 11 12  1  0  0  0  0
 11 13  1  0  0  0  0
 14 11  1  0  0  0  0
M  END
$$$$
Title Card Required
 OpenBabel07152211483D

 14 13  0  0  0  0  0  0  0  0999 V2000
   -0.9121    1.1427    0.2404 C   0  0  0  0  0  0  0  0  0  0  0  0
   -0.6336    2.1580    0.1728 H   0  0  0  0  0  0  0  0  0  0  0  0
   -0.7607    0.9224    1.3346 H   0  0  0  0  0  0  0  0  0  0  0  0
   -0.1611    0.3019   -0.7424 C   0  0  0  0  0  0  0  0  0  0  0  0
   -0.5874   -0.7306   -0.8850 H   0  0  0  0  0  0  0  0  0  0  0  0
    0.0669    0.8074   -1.7564 H   0  0  0  0  0  0  0  0  0  0  0  0
    1.6644   -0.1052    0.0561 Br  0  0  0  0  0  0  0  0  0  0  0  0
   -2.4227    1.0207   -0.0769 C   0  0  0  0  0  0  0  0  0  0  0  0
   -2.3435    0.8940   -1.1272 H   0  0  0  0  0  0  0  0  0  0  0  0
   -3.0609    1.6630    0.4791 H   0  0  0  0  0  0  0  0  0  0  0  0
   -2.9995   -0.3684    0.3468 C   0  0  0  0  0  0  0  0  0  0  0  0
   -4.1425   -0.2477    0.4533 H   0  0  0  0  0  0  0  0  0  0  0  0
   -3.1143   -0.4839    1.5037 H   0  0  0  0  0  0  0  0  0  0  0  0
   -2.4208   -1.3679   -0.1139 O   0  0  0  0  0  1  0  0  0  0  0  0
  1  3  1  0  0  0  0
  2  1  1  0  0  0  0
  4  7  1  0  0  0  0
  4  1  1  0  0  0  0
  5  4  1  0  0  0  0
  6  4  1  0  0  0  0
  8  1  1  0  0  0  0
  8 11  1  0  0  0  0
  8 10  1  0  0  0  0
  9  8  1  0  0  0  0
 11 12  1  0  0  0  0
 11 13  1  0  0  0  0
 14 11  1  0  0  0  0
M  END
$$$$
Title Card Required
 OpenBabel07152211483D

 14 13  0  0  0  0  0  0  0  0999 V2000
   -0.9211    1.1429    0.2504 C   0  0  0  0  0  0  0  0  0  0  0  0
   -0.5208    2.1244    0.2333 H   0  0  0  0  0  0  0  0  0  0  0  0
   -0.7017    0.8789    1.2775 H   0  0  0  0  0  0  0  0  0  0  0  0
   -0.1461    0.3179   -0.7478 C   0  0  0  0  0  0  0  0  0  0  0  0
   -0.6295   -0.7192   -0.8942 H   0  0  0  0  0  0  0  0  0  0  0  0
    0.0165    0.7473   -1.7381 H   0  0  0  0  0  0  0  0  0  0  0  0
    1.6636   -0.1059    0.0559 Br  0  0  0  0  0  0  0  0  0  0  0  0
   -2.4351    1.0221   -0.0759 C   0  0  0  0  0  0  0  0  0  0  0  0
   -2.3125    0.8706   -1.2042 H   0  0  0  0  0  0  0  0  0  0  0  0
   -3.0888    1.6798    0.4594 H   0  0  0  0  0  0  0  0  0  0  0  0
   -3.0021   -0.3584    0.3270 C   0  0  0  0  0  0  0  0  0  0  0  0
   -4.1495   -0.3011    0.4873 H   0  0  0  0  0  0  0  0  0  0  0  0
   -3.0827   -0.5019    1.4963 H   0  0  0  0  0  0  0  0  0  0  0  0
   -2.4168   -1.3724   -0.0985 O   0  0  0  0  0  1  0  0  0  0  0  0
  1  3  1  0  0  0  0
  2  1  1  0  0  0  0
  4  7  1  0  0  0  0
  4  1  1  0  0  0  0
  5  4  1  0  0  0  0
  6  4  1  0  0  0  0
  8  1  1  0  0  0  0
  8 11  1  0  0  0  0
  8 10  1  0  0  0  0
  9  8  1  0  0  0  0
 11 12  1  0  0  0  0
 11 13  1  0  0  0  0
 14 11  1  0  0  0  0
M  END
$$$$
Title Card Required
 OpenBabel07152211483D

 14 13  0  0  0  0  0  0  0  0999 V2000
   -0.9321    1.1423    0.2610 C   0  0  0  0  0  0  0  0  0  0  0  0
   -0.4004    2.1286    0.2866 H   0  0  0  0  0  0  0  0  0  0  0  0
   -0.6410    0.8127    1.2299 H   0  0  0  0  0  0  0  0  0  0  0  0
   -0.1306    0.3296   -0.7523 C   0  0  0  0  0  0  0  0  0  0  0  0
   -0.6652   -0.6747   -0.8905 H   0  0  0  0  0  0  0  0  0  0  0  0
   -0.0302    0.6967   -1.7205 H   0  0  0  0  0  0  0  0  0  0  0  0
    1.6627   -0.1066    0.0555 Br  0  0  0  0  0  0  0  0  0  0  0  0
   -2.4450    1.0192   -0.0761 C   0  0  0  0  0  0  0  0  0  0  0  0
   -2.3168    0.8742   -1.2700 H   0  0  0  0  0  0  0  0  0  0  0  0
   -3.1259    1.7351    0.4283 H   0  0  0  0  0  0  0  0  0  0  0  0
   -3.0071   -0.3468    0.3145 C   0  0  0  0  0  0  0  0  0  0  0  0
   -4.1707   -0.3483    0.4706 H   0  0  0  0  0  0  0  0  0  0  0  0
   -3.0238   -0.4848    1.5066 H   0  0  0  0  0  0  0  0  0  0  0  0
   -2.4106   -1.3815   -0.0869 O   0  0  0  0  0  1  0  0  0  0  0  0
  1  2  1  0  0  0  0
  1  3  1  0  0  0  0
  4  7  1  0  0  0  0
  4  1  1  0  0  0  0
  5  4  1  0  0  0  0
  6  4  1  0  0  0  0
  8  1  1  0  0  0  0
  8 11  1  0  0  0  0
  8 10  1  0  0  0  0
  9  8  1  0  0  0  0
 11 12  1  0  0  0  0
 11 13  1  0  0  0  0
 14 11  1  0  0  0  0
M  END
$$$$
Title Card Required
 OpenBabel07152211483D

 14 13  0  0  0  0  0  0  0  0999 V2000
   -0.9418    1.1431    0.2699 C   0  0  0  0  0  0  0  0  0  0  0  0
   -0.3043    2.1408    0.3320 H   0  0  0  0  0  0  0  0  0  0  0  0
   -0.5875    0.7215    1.2111 H   0  0  0  0  0  0  0  0  0  0  0  0
   -0.1169    0.3352   -0.7524 C   0  0  0  0  0  0  0  0  0  0  0  0
   -0.6886   -0.6076   -0.8706 H   0  0  0  0  0  0  0  0  0  0  0  0
   -0.0603    0.6797   -1.7445 H   0  0  0  0  0  0  0  0  0  0  0  0
    1.6617   -0.1072    0.0549 Br  0  0  0  0  0  0  0  0  0  0  0  0
   -2.4530    1.0146   -0.0795 C   0  0  0  0  0  0  0  0  0  0  0  0
   -2.3564    0.9079   -1.2894 H   0  0  0  0  0  0  0  0  0  0  0  0
   -3.1532    1.8065    0.3747 H   0  0  0  0  0  0  0  0  0  0  0  0
   -3.0143   -0.3362    0.3113 C   0  0  0  0  0  0  0  0  0  0  0  0
   -4.1937   -0.3821    0.4056 H   0  0  0  0  0  0  0  0  0  0  0  0
   -2.9482   -0.4258    1.5233 H   0  0  0  0  0  0  0  0  0  0  0  0
   -2.4024   -1.3943   -0.0794 O   0  0  0  0  0  1  0  0  0  0  0  0
  1  2  1  0  0  0  0
  1  3  1  0  0  0  0
  4  7  1  0  0  0  0
  4  1  1  0  0  0  0
  5  4  1  0  0  0  0
  6  4  1  0  0  0  0
  8  1  1  0  0  0  0
  8 11  1  0  0  0  0
  8 10  1  0  0  0  0
  9  8  1  0  0  0  0
 11 12  1  0  0  0  0
 11 13  1  0  0  0  0
 14 11  1  0  0  0  0
M  END
$$$$
Title Card Required
 OpenBabel07152211483D

 14 13  0  0  0  0  0  0  0  0999 V2000
   -0.9463    1.1461    0.2775 C   0  0  0  0  0  0  0  0  0  0  0  0
   -0.2607    2.1356    0.3685 H   0  0  0  0  0  0  0  0  0  0  0  0
   -0.5578    0.6249    1.2076 H   0  0  0  0  0  0  0  0  0  0  0  0
   -0.1063    0.3369   -0.7491 C   0  0  0  0  0  0  0  0  0  0  0  0
   -0.7036   -0.5511   -0.8395 H   0  0  0  0  0  0  0  0  0  0  0  0
   -0.0699    0.6939   -1.7982 H   0  0  0  0  0  0  0  0  0  0  0  0
    1.6607   -0.1076    0.0542 Br  0  0  0  0  0  0  0  0  0  0  0  0
   -2.4598    1.0115   -0.0863 C   0  0  0  0  0  0  0  0  0  0  0  0
   -2.4179    0.9624   -1.2567 H   0  0  0  0  0  0  0  0  0  0  0  0
   -3.1543    1.8645    0.3006 H   0  0  0  0  0  0  0  0  0  0  0  0
   -3.0224   -0.3299    0.3170 C   0  0  0  0  0  0  0  0  0  0  0  0
   -4.2036   -0.3977    0.3119 H   0  0  0  0  0  0  0  0  0  0  0  0
   -2.8766   -0.3356    1.5309 H   0  0  0  0  0  0  0  0  0  0  0  0
   -2.3936   -1.4077   -0.0756 O   0  0  0  0  0  1  0  0  0  0  0  0
  1  2  1  0  0  0  0
  1  3  1  0  0  0  0
  4  7  1  0  0  0  0
  4  1  1  0  0  0  0
  5  4  1  0  0  0  0
  6  4  1  0  0  0  0
  8  1  1  0  0  0  0
  8 10  1  0  0  0  0
  8 11  1  0  0  0  0
  9  8  1  0  0  0  0
 11 13  1  0  0  0  0
 12 11  1  0  0  0  0
 14 11  1  0  0  0  0
M  END
$$$$
Title Card Required
 OpenBabel07152211483D

 14 13  0  0  0  0  0  0  0  0999 V2000
   -0.9447    1.1501    0.2852 C   0  0  0  0  0  0  0  0  0  0  0  0
   -0.2700    2.1088    0.3989 H   0  0  0  0  0  0  0  0  0  0  0  0
   -0.5603    0.5405    1.1993 H   0  0  0  0  0  0  0  0  0  0  0  0
   -0.0981    0.3385   -0.7457 C   0  0  0  0  0  0  0  0  0  0  0  0
   -0.7191   -0.5282   -0.8040 H   0  0  0  0  0  0  0  0  0  0  0  0
   -0.0633    0.7203   -1.8411 H   0  0  0  0  0  0  0  0  0  0  0  0
    1.6596   -0.1080    0.0532 Br  0  0  0  0  0  0  0  0  0  0  0  0
   -2.4659    1.0116   -0.0953 C   0  0  0  0  0  0  0  0  0  0  0  0
   -2.4874    1.0265   -1.1948 H   0  0  0  0  0  0  0  0  0  0  0  0
   -3.1295    1.8990    0.2158 H   0  0  0  0  0  0  0  0  0  0  0  0
   -3.0301   -0.3283    0.3294 C   0  0  0  0  0  0  0  0  0  0  0  0
   -4.1953   -0.3964    0.2078 H   0  0  0  0  0  0  0  0  0  0  0  0
   -2.8215   -0.2295    1.5223 H   0  0  0  0  0  0  0  0  0  0  0  0
   -2.3851   -1.4204   -0.0742 O   0  0  0  0  0  1  0  0  0  0  0  0
  1  2  1  0  0  0  0
  1  3  1  0  0  0  0
  4  7  1  0  0  0  0
  4  1  1  0  0  0  0
  5  4  1  0  0  0  0
  6  4  1  0  0  0  0
  8 10  1  0  0  0  0
  8  1  1  0  0  0  0
  8 11  1  0  0  0  0
  9  8  1  0  0  0  0
 11 13  1  0  0  0  0
 12 11  1  0  0  0  0
 14 11  1  0  0  0  0
M  END
$$$$
Title Card Required
 OpenBabel07152211483D

 14 13  0  0  0  0  0  0  0  0999 V2000
   -0.9380    1.1532    0.2935 C   0  0  0  0  0  0  0  0  0  0  0  0
   -0.3225    2.0691    0.4271 H   0  0  0  0  0  0  0  0  0  0  0  0
   -0.5965    0.4769    1.1782 H   0  0  0  0  0  0  0  0  0  0  0  0
   -0.0917    0.3417   -0.7441 C   0  0  0  0  0  0  0  0  0  0  0  0
   -0.7364   -0.5412   -0.7682 H   0  0  0  0  0  0  0  0  0  0  0  0
   -0.0443    0.7465   -1.8499 H   0  0  0  0  0  0  0  0  0  0  0  0
    1.6585   -0.1083    0.0522 Br  0  0  0  0  0  0  0  0  0  0  0  0
   -2.4711    1.0152   -0.1048 C   0  0  0  0  0  0  0  0  0  0  0  0
   -2.5560    1.0926   -1.1427 H   0  0  0  0  0  0  0  0  0  0  0  0
   -3.0873    1.9140    0.1330 H   0  0  0  0  0  0  0  0  0  0  0  0
   -3.0364   -0.3305    0.3462 C   0  0  0  0  0  0  0  0  0  0  0  0
   -4.1699   -0.3810    0.1051 H   0  0  0  0  0  0  0  0  0  0  0  0
   -2.7900   -0.1205    1.4978 H   0  0  0  0  0  0  0  0  0  0  0  0
   -2.3770   -1.4318   -0.0739 O   0  0  0  0  0  1  0  0  0  0  0  0
  1  2  1  0  0  0  0
  1  3  1  0  0  0  0
  4  7  1  0  0  0  0
  4  1  1  0  0  0  0
  5  4  1  0  0  0  0
  6  4  1  0  0  0  0
  8 10  1  0  0  0  0
  8  1  1  0  0  0  0
  8 11  1  0  0  0  0
  9  8  1  0  0  0  0
 11 13  1  0  0  0  0
 12 11  1  0  0  0  0
 14 11  1  0  0  0  0
M  END
$$$$
Title Card Required
 OpenBabel07152211483D

 14 13  0  0  0  0  0  0  0  0999 V2000
   -0.9282    1.1531    0.3018 C   0  0  0  0  0  0  0  0  0  0  0  0
   -0.4006    2.0403    0.4596 H   0  0  0  0  0  0  0  0  0  0  0  0
   -0.6655    0.4365    1.1448 H   0  0  0  0  0  0  0  0  0  0  0  0
   -0.0879    0.3461   -0.7450 C   0  0  0  0  0  0  0  0  0  0  0  0
   -0.7480   -0.5773   -0.7345 H   0  0  0  0  0  0  0  0  0  0  0  0
   -0.0146    0.7668   -1.8160 H   0  0  0  0  0  0  0  0  0  0  0  0
    1.6573   -0.1086    0.0509 Br  0  0  0  0  0  0  0  0  0  0  0  0
   -2.4743    1.0215   -0.1131 C   0  0  0  0  0  0  0  0  0  0  0  0
   -2.6196    1.1563   -1.1406 H   0  0  0  0  0  0  0  0  0  0  0  0
   -3.0401    1.9237    0.0669 H   0  0  0  0  0  0  0  0  0  0  0  0
   -3.0407   -0.3358    0.3659 C   0  0  0  0  0  0  0  0  0  0  0  0
   -4.1310   -0.3537    0.0114 H   0  0  0  0  0  0  0  0  0  0  0  0
   -2.7877   -0.0199    1.4622 H   0  0  0  0  0  0  0  0  0  0  0  0
   -2.3692   -1.4417   -0.0737 O   0  0  0  0  0  1  0  0  0  0  0  0
  1  2  1  0  0  0  0
  1  3  1  0  0  0  0
  4  5  1  0  0  0  0
  4  7  1  0  0  0  0
  4  1  1  0  0  0  0
  6  4  1  0  0  0  0
  8 10  1  0  0  0  0
  8  1  1  0  0  0  0
  8 11  1  0  0  0  0
  9  8  1  0  0  0  0
 11 13  1  0  0  0  0
 12 11  1  0  0  0  0
 14 11  1  0  0  0  0
M  END
$$$$
Title Card Required
 OpenBabel07152211483D

 14 13  0  0  0  0  0  0  0  0999 V2000
   -0.9187    1.1461    0.3082 C   0  0  0  0  0  0  0  0  0  0  0  0
   -0.4794    2.0607    0.5053 H   0  0  0  0  0  0  0  0  0  0  0  0
   -0.7620    0.4174    1.1094 H   0  0  0  0  0  0  0  0  0  0  0  0
   -0.0875    0.3503   -0.7474 C   0  0  0  0  0  0  0  0  0  0  0  0
   -0.7430   -0.6170   -0.7072 H   0  0  0  0  0  0  0  0  0  0  0  0
    0.0246    0.7813   -1.7457 H   0  0  0  0  0  0  0  0  0  0  0  0
    1.6560   -0.1089    0.0494 Br  0  0  0  0  0  0  0  0  0  0  0  0
   -2.4737    1.0295   -0.1212 C   0  0  0  0  0  0  0  0  0  0  0  0
   -2.6707    1.2093   -1.1980 H   0  0  0  0  0  0  0  0  0  0  0  0
   -3.0036    1.9475    0.0365 H   0  0  0  0  0  0  0  0  0  0  0  0
   -3.0419   -0.3428    0.3860 C   0  0  0  0  0  0  0  0  0  0  0  0
   -4.0849   -0.3177   -0.0629 H   0  0  0  0  0  0  0  0  0  0  0  0
   -2.8202    0.0582    1.4275 H   0  0  0  0  0  0  0  0  0  0  0  0
   -2.3618   -1.4496   -0.0728 O   0  0  0  0  0  1  0  0  0  0  0  0
  1  2  1  0  0  0  0
  1  3  1  0  0  0  0
  4  5  1  0  0  0  0
  4  7  1  0  0  0  0
  4  1  1  0  0  0  0
  6  4  1  0  0  0  0
  8 10  1  0  0  0  0
  8  1  1  0  0  0  0
  8 11  1  0  0  0  0
  9  8  1  0  0  0  0
 11 13  1  0  0  0  0
 12 11  1  0  0  0  0
 14 11  1  0  0  0  0
M  END
$$$$
Title Card Required
 OpenBabel07152211483D

 14 13  0  0  0  0  0  0  0  0999 V2000
   -0.9119    1.1325    0.3098 C   0  0  0  0  0  0  0  0  0  0  0  0
   -0.5468    2.1357    0.5666 H   0  0  0  0  0  0  0  0  0  0  0  0
   -0.8722    0.4084    1.0938 H   0  0  0  0  0  0  0  0  0  0  0  0
   -0.0915    0.3523   -0.7476 C   0  0  0  0  0  0  0  0  0  0  0  0
   -0.7158   -0.6403   -0.6926 H   0  0  0  0  0  0  0  0  0  0  0  0
    0.0724    0.8010   -1.6745 H   0  0  0  0  0  0  0  0  0  0  0  0
    1.6549   -0.1091    0.0478 Br  0  0  0  0  0  0  0  0  0  0  0  0
   -2.4687    1.0390   -0.1327 C   0  0  0  0  0  0  0  0  0  0  0  0
   -2.6968    1.2388   -1.2769 H   0  0  0  0  0  0  0  0  0  0  0  0
   -2.9856    1.9910    0.0534 H   0  0  0  0  0  0  0  0  0  0  0  0
   -3.0397   -0.3504    0.4024 C   0  0  0  0  0  0  0  0  0  0  0  0
   -4.0419   -0.2790   -0.1068 H   0  0  0  0  0  0  0  0  0  0  0  0
   -2.8872    0.1009    1.4116 H   0  0  0  0  0  0  0  0  0  0  0  0
   -2.3551   -1.4549   -0.0702 O   0  0  0  0  0  1  0  0  0  0  0  0
  1  2  1  0  0  0  0
  1  3  1  0  0  0  0
  4  5  1  0  0  0  0
  4  7  1  0  0  0  0
  4  1  1  0  0  0  0
  6  4  1  0  0  0  0
  8 10  1  0  0  0  0
  8  1  1  0  0  0  0
  8 11  1  0  0  0  0
  9  8  1  0  0  0  0
 11 13  1  0  0  0  0
 12 11  1  0  0  0  0
 14 11  1  0  0  0  0
M  END
$$$$
Title Card Required
 OpenBabel07152211483D

 14 13  0  0  0  0  0  0  0  0999 V2000
   -0.9083    1.1175    0.3061 C   0  0  0  0  0  0  0  0  0  0  0  0
   -0.6128    2.2127    0.6312 H   0  0  0  0  0  0  0  0  0  0  0  0
   -0.9835    0.3979    1.1135 H   0  0  0  0  0  0  0  0  0  0  0  0
   -0.0996    0.3504   -0.7416 C   0  0  0  0  0  0  0  0  0  0  0  0
   -0.6689   -0.6379   -0.6962 H   0  0  0  0  0  0  0  0  0  0  0  0
    0.1298    0.8408   -1.6431 H   0  0  0  0  0  0  0  0  0  0  0  0
    1.6538   -0.1093    0.0460 Br  0  0  0  0  0  0  0  0  0  0  0  0
   -2.4604    1.0513   -0.1503 C   0  0  0  0  0  0  0  0  0  0  0  0
   -2.6906    1.2383   -1.3347 H   0  0  0  0  0  0  0  0  0  0  0  0
   -2.9770    2.0351    0.1124 H   0  0  0  0  0  0  0  0  0  0  0  0
   -3.0339   -0.3576    0.4122 C   0  0  0  0  0  0  0  0  0  0  0  0
   -4.0122   -0.2440   -0.1170 H   0  0  0  0  0  0  0  0  0  0  0  0
   -2.9828    0.1044    1.4271 H   0  0  0  0  0  0  0  0  0  0  0  0
   -2.3492   -1.4571   -0.0649 O   0  0  0  0  0  1  0  0  0  0  0  0
  1  2  1  0  0  0  0
  1  3  1  0  0  0  0
  4  5  1  0  0  0  0
  4  7  1  0  0  0  0
  4  1  1  0  0  0  0
  6  4  1  0  0  0  0
  8 10  1  0  0  0  0
  8  1  1  0  0  0  0
  8 11  1  0  0  0  0
  9  8  1  0  0  0  0
 11 13  1  0  0  0  0
 12 11  1  0  0  0  0
 14 11  1  0  0  0  0
M  END
$$$$
Title Card Required
 OpenBabel07152211483D

 14 13  0  0  0  0  0  0  0  0999 V2000
   -0.9088    1.1057    0.2997 C   0  0  0  0  0  0  0  0  0  0  0  0
   -0.6770    2.2391    0.6797 H   0  0  0  0  0  0  0  0  0  0  0  0
   -1.0783    0.3927    1.1560 H   0  0  0  0  0  0  0  0  0  0  0  0
   -0.1095    0.3464   -0.7301 C   0  0  0  0  0  0  0  0  0  0  0  0
   -0.6168   -0.6193   -0.7206 H   0  0  0  0  0  0  0  0  0  0  0  0
    0.1863    0.8926   -1.6477 H   0  0  0  0  0  0  0  0  0  0  0  0
    1.6530   -0.1095    0.0443 Br  0  0  0  0  0  0  0  0  0  0  0  0
   -2.4506    1.0666   -0.1727 C   0  0  0  0  0  0  0  0  0  0  0  0
   -2.6543    1.2112   -1.3444 H   0  0  0  0  0  0  0  0  0  0  0  0
   -2.9649    2.0523    0.1926 H   0  0  0  0  0  0  0  0  0  0  0  0
   -3.0257   -0.3633    0.4138 C   0  0  0  0  0  0  0  0  0  0  0  0
   -4.0049   -0.2200   -0.0982 H   0  0  0  0  0  0  0  0  0  0  0  0
   -3.0910    0.0700    1.4680 H   0  0  0  0  0  0  0  0  0  0  0  0
   -2.3444   -1.4560   -0.0568 O   0  0  0  0  0  1  0  0  0  0  0  0
  1  2  1  0  0  0  0
  1  3  1  0  0  0  0
  4  5  1  0  0  0  0
  4  7  1  0  0  0  0
  4  1  1  0  0  0  0
  6  4  1  0  0  0  0
  8 10  1  0  0  0  0
  8  1  1  0  0  0  0
  8 11  1  0  0  0  0
  9  8  1  0  0  0  0
 11 13  1  0  0  0  0
 12 11  1  0  0  0  0
 14 11  1  0  0  0  0
M  END
$$$$
Title Card Required
 OpenBabel07152211483D

 14 13  0  0  0  0  0  0  0  0999 V2000
   -0.9142    1.0975    0.2944 C   0  0  0  0  0  0  0  0  0  0  0  0
   -0.7320    2.2030    0.7025 H   0  0  0  0  0  0  0  0  0  0  0  0
   -1.1449    0.4061    1.1943 H   0  0  0  0  0  0  0  0  0  0  0  0
   -0.1175    0.3445   -0.7167 C   0  0  0  0  0  0  0  0  0  0  0  0
   -0.5772   -0.6098   -0.7638 H   0  0  0  0  0  0  0  0  0  0  0  0
    0.2260    0.9332   -1.6515 H   0  0  0  0  0  0  0  0  0  0  0  0
    1.6524   -0.1097    0.0427 Br  0  0  0  0  0  0  0  0  0  0  0  0
   -2.4403    1.0838   -0.1967 C   0  0  0  0  0  0  0  0  0  0  0  0
   -2.5990    1.1686   -1.3102 H   0  0  0  0  0  0  0  0  0  0  0  0
   -2.9434    2.0326    0.2722 H   0  0  0  0  0  0  0  0  0  0  0  0
   -3.0162   -0.3668    0.4085 C   0  0  0  0  0  0  0  0  0  0  0  0
   -4.0205   -0.2106   -0.0617 H   0  0  0  0  0  0  0  0  0  0  0  0
   -3.1954    0.0039    1.5136 H   0  0  0  0  0  0  0  0  0  0  0  0
   -2.3410   -1.4518   -0.0463 O   0  0  0  0  0  1  0  0  0  0  0  0
  1  2  1  0  0  0  0
  1  3  1  0  0  0  0
  4  7  1  0  0  0  0
  4  1  1  0  0  0  0
  5  4  1  0  0  0  0
  6  4  1  0  0  0  0
  8 10  1  0  0  0  0
  8  1  1  0  0  0  0
  8 11  1  0  0  0  0
  9  8  1  0  0  0  0
 11 13  1  0  0  0  0
 12 11  1  0  0  0  0
 14 11  1  0  0  0  0
M  END
$$$$
Title Card Required
 OpenBabel07152211483D

 14 13  0  0  0  0  0  0  0  0999 V2000
   -0.9250    1.0918    0.2921 C   0  0  0  0  0  0  0  0  0  0  0  0
   -0.7697    2.1205    0.7001 H   0  0  0  0  0  0  0  0  0  0  0  0
   -1.1783    0.4404    1.2129 H   0  0  0  0  0  0  0  0  0  0  0  0
   -0.1216    0.3470   -0.7041 C   0  0  0  0  0  0  0  0  0  0  0  0
   -0.5591   -0.6239   -0.8222 H   0  0  0  0  0  0  0  0  0  0  0  0
    0.2400    0.9504   -1.6333 H   0  0  0  0  0  0  0  0  0  0  0  0
    1.6521   -0.1100    0.0413 Br  0  0  0  0  0  0  0  0  0  0  0  0
   -2.4296    1.1010   -0.2177 C   0  0  0  0  0  0  0  0  0  0  0  0
   -2.5386    1.1221   -1.2648 H   0  0  0  0  0  0  0  0  0  0  0  0
   -2.9140    1.9815    0.3363 H   0  0  0  0  0  0  0  0  0  0  0  0
   -3.0070   -0.3681    0.3985 C   0  0  0  0  0  0  0  0  0  0  0  0
   -4.0528   -0.2163   -0.0182 H   0  0  0  0  0  0  0  0  0  0  0  0
   -3.2821   -0.0847    1.5460 H   0  0  0  0  0  0  0  0  0  0  0  0
   -2.3387   -1.4452   -0.0336 O   0  0  0  0  0  1  0  0  0  0  0  0
  1  2  1  0  0  0  0
  1  3  1  0  0  0  0
  4  7  1  0  0  0  0
  4  1  1  0  0  0  0
  5  4  1  0  0  0  0
  6  4  1  0  0  0  0
  8  1  1  0  0  0  0
  8 10  1  0  0  0  0
  8 11  1  0  0  0  0
  9  8  1  0  0  0  0
 11 13  1  0  0  0  0
 12 11  1  0  0  0  0
 14 11  1  0  0  0  0
M  END
$$$$
Title Card Required
 OpenBabel07152211483D

 14 13  0  0  0  0  0  0  0  0999 V2000
   -0.9415    1.0858    0.2923 C   0  0  0  0  0  0  0  0  0  0  0  0
   -0.7818    2.0298    0.6830 H   0  0  0  0  0  0  0  0  0  0  0  0
   -1.1807    0.4888    1.2108 H   0  0  0  0  0  0  0  0  0  0  0  0
   -0.1221    0.3529   -0.6926 C   0  0  0  0  0  0  0  0  0  0  0  0
   -0.5580   -0.6501   -0.8912 H   0  0  0  0  0  0  0  0  0  0  0  0
    0.2284    0.9455   -1.5901 H   0  0  0  0  0  0  0  0  0  0  0  0
    1.6519   -0.1103    0.0399 Br  0  0  0  0  0  0  0  0  0  0  0  0
   -2.4179    1.1165   -0.2315 C   0  0  0  0  0  0  0  0  0  0  0  0
   -2.4836    1.0787   -1.2543 H   0  0  0  0  0  0  0  0  0  0  0  0
   -2.8828    1.9118    0.3800 H   0  0  0  0  0  0  0  0  0  0  0  0
   -2.9994   -0.3676    0.3848 C   0  0  0  0  0  0  0  0  0  0  0  0
   -4.0930   -0.2360    0.0256 H   0  0  0  0  0  0  0  0  0  0  0  0
   -3.3433   -0.1874    1.5574 H   0  0  0  0  0  0  0  0  0  0  0  0
   -2.3373   -1.4362   -0.0191 O   0  0  0  0  0  1  0  0  0  0  0  0
  1  2  1  0  0  0  0
  1  3  1  0  0  0  0
  4  7  1  0  0  0  0
  4  1  1  0  0  0  0
  5  4  1  0  0  0  0
  6  4  1  0  0  0  0
  8  1  1  0  0  0  0
  8 10  1  0  0  0  0
  8 11  1  0  0  0  0
  9  8  1  0  0  0  0
 11 13  1  0  0  0  0
 12 11  1  0  0  0  0
 14 11  1  0  0  0  0
M  END
$$$$
Title Card Required
 OpenBabel07152211483D

 14 13  0  0  0  0  0  0  0  0999 V2000
   -0.9647    1.0755    0.2931 C   0  0  0  0  0  0  0  0  0  0  0  0
   -0.7542    1.9880    0.6684 H   0  0  0  0  0  0  0  0  0  0  0  0
   -1.1563    0.5368    1.1998 H   0  0  0  0  0  0  0  0  0  0  0  0
   -0.1199    0.3593   -0.6817 C   0  0  0  0  0  0  0  0  0  0  0  0
   -0.5638   -0.6634   -0.9638 H   0  0  0  0  0  0  0  0  0  0  0  0
    0.1963    0.9296   -1.5325 H   0  0  0  0  0  0  0  0  0  0  0  0
    1.6520   -0.1106    0.0385 Br  0  0  0  0  0  0  0  0  0  0  0  0
   -2.4041    1.1284   -0.2364 C   0  0  0  0  0  0  0  0  0  0  0  0
   -2.4392    1.0411   -1.3016 H   0  0  0  0  0  0  0  0  0  0  0  0
   -2.8617    1.8428    0.4067 H   0  0  0  0  0  0  0  0  0  0  0  0
   -2.9947   -0.3658    0.3677 C   0  0  0  0  0  0  0  0  0  0  0  0
   -4.1327   -0.2682    0.0639 H   0  0  0  0  0  0  0  0  0  0  0  0
   -3.3724   -0.2965    1.5446 H   0  0  0  0  0  0  0  0  0  0  0  0
   -2.3365   -1.4248   -0.0024 O   0  0  0  0  0  1  0  0  0  0  0  0
  1  2  1  0  0  0  0
  1  3  1  0  0  0  0
  4  7  1  0  0  0  0
  4  1  1  0  0  0  0
  5  4  1  0  0  0  0
  6  4  1  0  0  0  0
  8  1  1  0  0  0  0
  8 11  1  0  0  0  0
  8 10  1  0  0  0  0
  9  8  1  0  0  0  0
 11 13  1  0  0  0  0
 12 11  1  0  0  0  0
 14 11  1  0  0  0  0
M  END
$$$$
Title Card Required
 OpenBabel07152211483D

 14 13  0  0  0  0  0  0  0  0999 V2000
   -0.9927    1.0606    0.2923 C   0  0  0  0  0  0  0  0  0  0  0  0
   -0.6795    2.0252    0.6625 H   0  0  0  0  0  0  0  0  0  0  0  0
   -1.1139    0.5605    1.2061 H   0  0  0  0  0  0  0  0  0  0  0  0
   -0.1168    0.3622   -0.6703 C   0  0  0  0  0  0  0  0  0  0  0  0
   -0.5676   -0.6421   -1.0251 H   0  0  0  0  0  0  0  0  0  0  0  0
    0.1577    0.9281   -1.4926 H   0  0  0  0  0  0  0  0  0  0  0  0
    1.6523   -0.1110    0.0372 Br  0  0  0  0  0  0  0  0  0  0  0  0
   -2.3887    1.1332   -0.2357 C   0  0  0  0  0  0  0  0  0  0  0  0
   -2.4094    1.0176   -1.3723 H   0  0  0  0  0  0  0  0  0  0  0  0
   -2.8688    1.8027    0.4241 H   0  0  0  0  0  0  0  0  0  0  0  0
   -2.9946   -0.3634    0.3486 C   0  0  0  0  0  0  0  0  0  0  0  0
   -4.1615   -0.3078    0.0864 H   0  0  0  0  0  0  0  0  0  0  0  0
   -3.3618   -0.3951    1.5092 H   0  0  0  0  0  0  0  0  0  0  0  0
   -2.3357   -1.4117    0.0154 O   0  0  0  0  0  1  0  0  0  0  0  0
  1  2  1  0  0  0  0
  1  3  1  0  0  0  0
  4  7  1  0  0  0  0
  4  1  1  0  0  0  0
  5  4  1  0  0  0  0
  6  4  1  0  0  0  0
  8  1  1  0  0  0  0
  8 11  1  0  0  0  0
  8 10  1  0  0  0  0
  9  8  1  0  0  0  0
 11 13  1  0  0  0  0
 12 11  1  0  0  0  0
 14 11  1  0  0  0  0
M  END
$$$$
Title Card Required
 OpenBabel07152211483D

 14 13  0  0  0  0  0  0  0  0999 V2000
   -1.0207    1.0470    0.2909 C   0  0  0  0  0  0  0  0  0  0  0  0
   -0.5801    2.0884    0.6448 H   0  0  0  0  0  0  0  0  0  0  0  0
   -1.0625    0.5488    1.2460 H   0  0  0  0  0  0  0  0  0  0  0  0
   -0.1141    0.3592   -0.6580 C   0  0  0  0  0  0  0  0  0  0  0  0
   -0.5651   -0.5853   -1.0643 H   0  0  0  0  0  0  0  0  0  0  0  0
    0.1261    0.9620   -1.4958 H   0  0  0  0  0  0  0  0  0  0  0  0
    1.6527   -0.1114    0.0360 Br  0  0  0  0  0  0  0  0  0  0  0  0
   -2.3737    1.1293   -0.2338 C   0  0  0  0  0  0  0  0  0  0  0  0
   -2.3951    1.0167   -1.4147 H   0  0  0  0  0  0  0  0  0  0  0  0
   -2.9094    1.8031    0.4328 H   0  0  0  0  0  0  0  0  0  0  0  0
   -2.9999   -0.3611    0.3293 C   0  0  0  0  0  0  0  0  0  0  0  0
   -4.1741   -0.3463    0.0848 H   0  0  0  0  0  0  0  0  0  0  0  0
   -3.3138   -0.4637    1.4613 H   0  0  0  0  0  0  0  0  0  0  0  0
   -2.3341   -1.3983    0.0327 O   0  0  0  0  0  1  0  0  0  0  0  0
  1  2  1  0  0  0  0
  1  3  1  0  0  0  0
  4  7  1  0  0  0  0
  4  1  1  0  0  0  0
  5  4  1  0  0  0  0
  6  4  1  0  0  0  0
  8  1  1  0  0  0  0
  8 11  1  0  0  0  0
  8 10  1  0  0  0  0
  9  8  1  0  0  0  0
 11 13  1  0  0  0  0
 12 11  1  0  0  0  0
 14 11  1  0  0  0  0
M  END
$$$$
Title Card Required
 OpenBabel07152211483D

 14 13  0  0  0  0  0  0  0  0999 V2000
   -1.0437    1.0381    0.2931 C   0  0  0  0  0  0  0  0  0  0  0  0
   -0.4862    2.1229    0.6002 H   0  0  0  0  0  0  0  0  0  0  0  0
   -1.0068    0.5163    1.3003 H   0  0  0  0  0  0  0  0  0  0  0  0
   -0.1114    0.3529   -0.6462 C   0  0  0  0  0  0  0  0  0  0  0  0
   -0.5606   -0.5155   -1.0832 H   0  0  0  0  0  0  0  0  0  0  0  0
    0.1001    1.0218   -1.5256 H   0  0  0  0  0  0  0  0  0  0  0  0
    1.6531   -0.1118    0.0348 Br  0  0  0  0  0  0  0  0  0  0  0  0
   -2.3627    1.1180   -0.2319 C   0  0  0  0  0  0  0  0  0  0  0  0
   -2.3945    1.0411   -1.4020 H   0  0  0  0  0  0  0  0  0  0  0  0
   -2.9690    1.8295    0.4155 H   0  0  0  0  0  0  0  0  0  0  0  0
   -3.0111   -0.3589    0.3101 C   0  0  0  0  0  0  0  0  0  0  0  0
   -4.1704   -0.3772    0.0544 H   0  0  0  0  0  0  0  0  0  0  0  0
   -3.2379   -0.4870    1.4165 H   0  0  0  0  0  0  0  0  0  0  0  0
   -2.3305   -1.3858    0.0484 O   0  0  0  0  0  1  0  0  0  0  0  0
  1  2  1  0  0  0  0
  1  3  1  0  0  0  0
  4  7  1  0  0  0  0
  4  1  1  0  0  0  0
  5  4  1  0  0  0  0
  6  4  1  0  0  0  0
  8  1  1  0  0  0  0
  8 11  1  0  0  0  0
  8 10  1  0  0  0  0
  9  8  1  0  0  0  0
 11 13  1  0  0  0  0
 12 11  1  0  0  0  0
 14 11  1  0  0  0  0
M  END
$$$$
Title Card Required
 OpenBabel07152211483D

 14 13  0  0  0  0  0  0  0  0999 V2000
   -1.0559    1.0345    0.3034 C   0  0  0  0  0  0  0  0  0  0  0  0
   -0.4250    2.0994    0.5279 H   0  0  0  0  0  0  0  0  0  0  0  0
   -0.9549    0.4870    1.3326 H   0  0  0  0  0  0  0  0  0  0  0  0
   -0.1074    0.3488   -0.6376 C   0  0  0  0  0  0  0  0  0  0  0  0
   -0.5668   -0.4746   -1.0948 H   0  0  0  0  0  0  0  0  0  0  0  0
    0.0739    1.0781   -1.5434 H   0  0  0  0  0  0  0  0  0  0  0  0
    1.6536   -0.1123    0.0337 Br  0  0  0  0  0  0  0  0  0  0  0  0
   -2.3607    1.1013   -0.2291 C   0  0  0  0  0  0  0  0  0  0  0  0
   -2.4048    1.0893   -1.3338 H   0  0  0  0  0  0  0  0  0  0  0  0
   -3.0232    1.8596    0.3524 H   0  0  0  0  0  0  0  0  0  0  0  0
   -3.0278   -0.3569    0.2911 C   0  0  0  0  0  0  0  0  0  0  0  0
   -4.1530   -0.3948   -0.0064 H   0  0  0  0  0  0  0  0  0  0  0  0
   -3.1496   -0.4487    1.3960 H   0  0  0  0  0  0  0  0  0  0  0  0
   -2.3234   -1.3759    0.0613 O   0  0  0  0  0  1  0  0  0  0  0  0
  1  2  1  0  0  0  0
  1  3  1  0  0  0  0
  4  7  1  0  0  0  0
  4  1  1  0  0  0  0
  5  4  1  0  0  0  0
  6  4  1  0  0  0  0
  8 11  1  0  0  0  0
  8  1  1  0  0  0  0
  8 10  1  0  0  0  0
  9  8  1  0  0  0  0
 11 13  1  0  0  0  0
 12 11  1  0  0  0  0
 14 11  1  0  0  0  0
M  END
$$$$
Title Card Required
 OpenBabel07152211483D

 14 13  0  0  0  0  0  0  0  0999 V2000
   -1.0538    1.0355    0.3204 C   0  0  0  0  0  0  0  0  0  0  0  0
   -0.4169    2.0255    0.4524 H   0  0  0  0  0  0  0  0  0  0  0  0
   -0.9224    0.4781    1.3241 H   0  0  0  0  0  0  0  0  0  0  0  0
   -0.1027    0.3504   -0.6347 C   0  0  0  0  0  0  0  0  0  0  0  0
   -0.5873   -0.4864   -1.1067 H   0  0  0  0  0  0  0  0  0  0  0  0
    0.0506    1.1034   -1.5254 H   0  0  0  0  0  0  0  0  0  0  0  0
    1.6541   -0.1127    0.0327 Br  0  0  0  0  0  0  0  0  0  0  0  0
   -2.3695    1.0845   -0.2231 C   0  0  0  0  0  0  0  0  0  0  0  0
   -2.4197    1.1447   -1.2660 H   0  0  0  0  0  0  0  0  0  0  0  0
   -3.0494    1.8743    0.2585 H   0  0  0  0  0  0  0  0  0  0  0  0
   -3.0453   -0.3546    0.2752 C   0  0  0  0  0  0  0  0  0  0  0  0
   -4.1316   -0.3966   -0.0795 H   0  0  0  0  0  0  0  0  0  0  0  0
   -3.0803   -0.3576    1.4073 H   0  0  0  0  0  0  0  0  0  0  0  0
   -2.3140   -1.3705    0.0692 O   0  0  0  0  0  1  0  0  0  0  0  0
  1  2  1  0  0  0  0
  1  3  1  0  0  0  0
  4  7  1  0  0  0  0
  4  1  1  0  0  0  0
  5  4  1  0  0  0  0
  6  4  1  0  0  0  0
  8 10  1  0  0  0  0
  8 11  1  0  0  0  0
  8  1  1  0  0  0  0
  9  8  1  0  0  0  0
 11 13  1  0  0  0  0
 12 11  1  0  0  0  0
 14 11  1  0  0  0  0
M  END
$$$$
Title Card Required
 OpenBabel07152211483D

 14 13  0  0  0  0  0  0  0  0999 V2000
   -1.0423    1.0383    0.3396 C   0  0  0  0  0  0  0  0  0  0  0  0
   -0.4438    1.9399    0.3915 H   0  0  0  0  0  0  0  0  0  0  0  0
   -0.9085    0.4841    1.2932 H   0  0  0  0  0  0  0  0  0  0  0  0
   -0.0993    0.3546   -0.6368 C   0  0  0  0  0  0  0  0  0  0  0  0
   -0.6074   -0.5207   -1.1110 H   0  0  0  0  0  0  0  0  0  0  0  0
    0.0336    1.1026   -1.4820 H   0  0  0  0  0  0  0  0  0  0  0  0
    1.6545   -0.1131    0.0318 Br  0  0  0  0  0  0  0  0  0  0  0  0
   -2.3847    1.0690   -0.2131 C   0  0  0  0  0  0  0  0  0  0  0  0
   -2.4335    1.1975   -1.2447 H   0  0  0  0  0  0  0  0  0  0  0  0
   -3.0540    1.8774    0.1619 H   0  0  0  0  0  0  0  0  0  0  0  0
   -3.0606   -0.3520    0.2629 C   0  0  0  0  0  0  0  0  0  0  0  0
   -4.1144   -0.3887   -0.1498 H   0  0  0  0  0  0  0  0  0  0  0  0
   -3.0387   -0.2405    1.4282 H   0  0  0  0  0  0  0  0  0  0  0  0
   -2.3037   -1.3684    0.0734 O   0  0  0  0  0  1  0  0  0  0  0  0
  1  2  1  0  0  0  0
  1  3  1  0  0  0  0
  4  7  1  0  0  0  0
  4  1  1  0  0  0  0
  5  4  1  0  0  0  0
  6  4  1  0  0  0  0
  8 10  1  0  0  0  0
  8 11  1  0  0  0  0
  8  1  1  0  0  0  0
  9  8  1  0  0  0  0
 11 13  1  0  0  0  0
 12 11  1  0  0  0  0
 14 11  1  0  0  0  0
M  END
$$$$
Title Card Required
 OpenBabel07152211483D

 14 13  0  0  0  0  0  0  0  0999 V2000
   -1.0259    1.0401    0.3593 C   0  0  0  0  0  0  0  0  0  0  0  0
   -0.4787    1.8823    0.3475 H   0  0  0  0  0  0  0  0  0  0  0  0
   -0.9065    0.4936    1.2616 H   0  0  0  0  0  0  0  0  0  0  0  0
   -0.0979    0.3587   -0.6428 C   0  0  0  0  0  0  0  0  0  0  0  0
   -0.6181   -0.5553   -1.1007 H   0  0  0  0  0  0  0  0  0  0  0  0
    0.0241    1.0893   -1.4282 H   0  0  0  0  0  0  0  0  0  0  0  0
    1.6549   -0.1135    0.0310 Br  0  0  0  0  0  0  0  0  0  0  0  0
   -2.4041    1.0530   -0.1998 C   0  0  0  0  0  0  0  0  0  0  0  0
   -2.4426    1.2473   -1.2670 H   0  0  0  0  0  0  0  0  0  0  0  0
   -3.0507    1.8806    0.0725 H   0  0  0  0  0  0  0  0  0  0  0  0
   -3.0736   -0.3486    0.2529 C   0  0  0  0  0  0  0  0  0  0  0  0
   -4.1027   -0.3753   -0.2167 H   0  0  0  0  0  0  0  0  0  0  0  0
   -3.0225   -0.1064    1.4420 H   0  0  0  0  0  0  0  0  0  0  0  0
   -2.2927   -1.3682    0.0758 O   0  0  0  0  0  1  0  0  0  0  0  0
  1  3  1  0  0  0  0
  2  1  1  0  0  0  0
  4  7  1  0  0  0  0
  4  1  1  0  0  0  0
  5  4  1  0  0  0  0
  6  4  1  0  0  0  0
  8 10  1  0  0  0  0
  8 11  1  0  0  0  0
  8  1  1  0  0  0  0
  9  8  1  0  0  0  0
 11 13  1  0  0  0  0
 12 11  1  0  0  0  0
 14 11  1  0  0  0  0
M  END
$$$$
Title Card Required
 OpenBabel07152211483D

 14 13  0  0  0  0  0  0  0  0999 V2000
   -1.0074    1.0378    0.3781 C   0  0  0  0  0  0  0  0  0  0  0  0
   -0.4949    1.9032    0.3226 H   0  0  0  0  0  0  0  0  0  0  0  0
   -0.9122    0.4936    1.2552 H   0  0  0  0  0  0  0  0  0  0  0  0
   -0.0996    0.3599   -0.6518 C   0  0  0  0  0  0  0  0  0  0  0  0
   -0.6134   -0.5780   -1.0693 H   0  0  0  0  0  0  0  0  0  0  0  0
    0.0264    1.0819   -1.3842 H   0  0  0  0  0  0  0  0  0  0  0  0
    1.6554   -0.1138    0.0302 Br  0  0  0  0  0  0  0  0  0  0  0  0
   -2.4276    1.0346   -0.1851 C   0  0  0  0  0  0  0  0  0  0  0  0
   -2.4417    1.2892   -1.3121 H   0  0  0  0  0  0  0  0  0  0  0  0
   -3.0510    1.8962   -0.0024 H   0  0  0  0  0  0  0  0  0  0  0  0
   -3.0842   -0.3436    0.2444 C   0  0  0  0  0  0  0  0  0  0  0  0
   -4.0957   -0.3578   -0.2800 H   0  0  0  0  0  0  0  0  0  0  0  0
   -3.0368    0.0419    1.4368 H   0  0  0  0  0  0  0  0  0  0  0  0
   -2.2808   -1.3689    0.0770 O   0  0  0  0  0  1  0  0  0  0  0  0
  1  3  1  0  0  0  0
  2  1  1  0  0  0  0
  4  7  1  0  0  0  0
  4  1  1  0  0  0  0
  5  4  1  0  0  0  0
  6  4  1  0  0  0  0
  8 10  1  0  0  0  0
  8 11  1  0  0  0  0
  8  1  1  0  0  0  0
  9  8  1  0  0  0  0
 11 13  1  0  0  0  0
 12 11  1  0  0  0  0
 14 11  1  0  0  0  0
M  END
$$$$
Title Card Required
 OpenBabel07152211483D

 14 13  0  0  0  0  0  0  0  0999 V2000
   -0.9898    1.0319    0.3919 C   0  0  0  0  0  0  0  0  0  0  0  0
   -0.4903    2.0085    0.3241 H   0  0  0  0  0  0  0  0  0  0  0  0
   -0.9216    0.4754    1.2952 H   0  0  0  0  0  0  0  0  0  0  0  0
   -0.1052    0.3556   -0.6606 C   0  0  0  0  0  0  0  0  0  0  0  0
   -0.5925   -0.5803   -1.0199 H   0  0  0  0  0  0  0  0  0  0  0  0
    0.0451    1.1013   -1.3800 H   0  0  0  0  0  0  0  0  0  0  0  0
    1.6560   -0.1142    0.0293 Br  0  0  0  0  0  0  0  0  0  0  0  0
   -2.4516    1.0162   -0.1738 C   0  0  0  0  0  0  0  0  0  0  0  0
   -2.4259    1.3064   -1.3482 H   0  0  0  0  0  0  0  0  0  0  0  0
   -3.0602    1.9264   -0.0459 H   0  0  0  0  0  0  0  0  0  0  0  0
   -3.0907   -0.3367    0.2378 C   0  0  0  0  0  0  0  0  0  0  0  0
   -4.0917   -0.3404   -0.3265 H   0  0  0  0  0  0  0  0  0  0  0  0
   -3.0864    0.1737    1.4051 H   0  0  0  0  0  0  0  0  0  0  0  0
   -2.2696   -1.3696    0.0779 O   0  0  0  0  0  1  0  0  0  0  0  0
  1  3  1  0  0  0  0
  2  1  1  0  0  0  0
  4  7  1  0  0  0  0
  4  1  1  0  0  0  0
  5  4  1  0  0  0  0
  6  4  1  0  0  0  0
  8 10  1  0  0  0  0
  8 11  1  0  0  0  0
  8  1  1  0  0  0  0
  9  8  1  0  0  0  0
 11 13  1  0  0  0  0
 12 11  1  0  0  0  0
 14 11  1  0  0  0  0
M  END
$$$$
Title Card Required
 OpenBabel07152211483D

 14 13  0  0  0  0  0  0  0  0999 V2000
   -0.9724    1.0266    0.4008 C   0  0  0  0  0  0  0  0  0  0  0  0
   -0.4962    2.1305    0.3552 H   0  0  0  0  0  0  0  0  0  0  0  0
   -0.9326    0.4515    1.3637 H   0  0  0  0  0  0  0  0  0  0  0  0
   -0.1134    0.3481   -0.6680 C   0  0  0  0  0  0  0  0  0  0  0  0
   -0.5650   -0.5739   -0.9644 H   0  0  0  0  0  0  0  0  0  0  0  0
    0.0763    1.1385   -1.4131 H   0  0  0  0  0  0  0  0  0  0  0  0
    1.6567   -0.1146    0.0285 Br  0  0  0  0  0  0  0  0  0  0  0  0
   -2.4737    1.0004   -0.1682 C   0  0  0  0  0  0  0  0  0  0  0  0
   -2.3958    1.2905   -1.3559 H   0  0  0  0  0  0  0  0  0  0  0  0
   -3.0729    1.9568   -0.0550 H   0  0  0  0  0  0  0  0  0  0  0  0
   -3.0935   -0.3281    0.2324 C   0  0  0  0  0  0  0  0  0  0  0  0
   -4.0870   -0.3273   -0.3496 H   0  0  0  0  0  0  0  0  0  0  0  0
   -3.1693    0.2678    1.3490 H   0  0  0  0  0  0  0  0  0  0  0  0
   -2.2601   -1.3693    0.0789 O   0  0  0  0  0  1  0  0  0  0  0  0
  1  3  1  0  0  0  0
  2  1  1  0  0  0  0
  4  7  1  0  0  0  0
  4  1  1  0  0  0  0
  5  4  1  0  0  0  0
  6  4  1  0  0  0  0
  8 10  1  0  0  0  0
  8 11  1  0  0  0  0
  8  1  1  0  0  0  0
  9  8  1  0  0  0  0
 11 13  1  0  0  0  0
 12 11  1  0  0  0  0
 14 11  1  0  0  0  0
M  END
$$$$
Title Card Required
 OpenBabel07152211483D

 14 13  0  0  0  0  0  0  0  0999 V2000
   -0.9538    1.0246    0.4079 C   0  0  0  0  0  0  0  0  0  0  0  0
   -0.5345    2.2159    0.4196 H   0  0  0  0  0  0  0  0  0  0  0  0
   -0.9442    0.4441    1.4271 H   0  0  0  0  0  0  0  0  0  0  0  0
   -0.1226    0.3425   -0.6746 C   0  0  0  0  0  0  0  0  0  0  0  0
   -0.5469   -0.5880   -0.9147 H   0  0  0  0  0  0  0  0  0  0  0  0
    0.1107    1.1605   -1.4608 H   0  0  0  0  0  0  0  0  0  0  0  0
    1.6576   -0.1151    0.0277 Br  0  0  0  0  0  0  0  0  0  0  0  0
   -2.4936    0.9895   -0.1700 C   0  0  0  0  0  0  0  0  0  0  0  0
   -2.3514    1.2325   -1.3229 H   0  0  0  0  0  0  0  0  0  0  0  0
   -3.0811    1.9686   -0.0284 H   0  0  0  0  0  0  0  0  0  0  0  0
   -3.0934   -0.3170    0.2272 C   0  0  0  0  0  0  0  0  0  0  0  0
   -4.0792   -0.3219   -0.3466 H   0  0  0  0  0  0  0  0  0  0  0  0
   -3.2912    0.3085    1.2700 H   0  0  0  0  0  0  0  0  0  0  0  0
   -2.2522   -1.3669    0.0810 O   0  0  0  0  0  1  0  0  0  0  0  0
  1  2  1  0  0  0  0
  1  3  1  0  0  0  0
  4  7  1  0  0  0  0
  4  1  1  0  0  0  0
  5  4  1  0  0  0  0
  6  4  1  0  0  0  0
  8 10  1  0  0  0  0
  8 11  1  0  0  0  0
  8  1  1  0  0  0  0
  9  8  1  0  0  0  0
 11 13  1  0  0  0  0
 12 11  1  0  0  0  0
 14 11  1  0  0  0  0
M  END
$$$$
Title Card Required
 OpenBabel07152211483D

 14 13  0  0  0  0  0  0  0  0999 V2000
   -0.9385    1.0275    0.4146 C   0  0  0  0  0  0  0  0  0  0  0  0
   -0.6018    2.2163    0.5000 H   0  0  0  0  0  0  0  0  0  0  0  0
   -0.9511    0.4690    1.4434 H   0  0  0  0  0  0  0  0  0  0  0  0
   -0.1292    0.3440   -0.6798 C   0  0  0  0  0  0  0  0  0  0  0  0
   -0.5530   -0.6352   -0.8878 H   0  0  0  0  0  0  0  0  0  0  0  0
    0.1298    1.1343   -1.4917 H   0  0  0  0  0  0  0  0  0  0  0  0
    1.6587   -0.1156    0.0269 Br  0  0  0  0  0  0  0  0  0  0  0  0
   -2.5056    0.9871   -0.1789 C   0  0  0  0  0  0  0  0  0  0  0  0
   -2.3053    1.1445   -1.2609 H   0  0  0  0  0  0  0  0  0  0  0  0
   -3.0785    1.9477    0.0252 H   0  0  0  0  0  0  0  0  0  0  0  0
   -3.0918   -0.3060    0.2225 C   0  0  0  0  0  0  0  0  0  0  0  0
   -4.0730   -0.3285   -0.3245 H   0  0  0  0  0  0  0  0  0  0  0  0
   -3.4263    0.2770    1.1948 H   0  0  0  0  0  0  0  0  0  0  0  0
   -2.2474   -1.3621    0.0843 O   0  0  0  0  0  1  0  0  0  0  0  0
  1  2  1  0  0  0  0
  1  3  1  0  0  0  0
  4  7  1  0  0  0  0
  4  1  1  0  0  0  0
  5  4  1  0  0  0  0
  6  4  1  0  0  0  0
  8 10  1  0  0  0  0
  8 11  1  0  0  0  0
  8  1  1  0  0  0  0
  9  8  1  0  0  0  0
 11 13  1  0  0  0  0
 12 11  1  0  0  0  0
 14 11  1  0  0  0  0
M  END
$$$$
Title Card Required
 OpenBabel07152211483D

 14 13  0  0  0  0  0  0  0  0999 V2000
   -0.9288    1.0339    0.4212 C   0  0  0  0  0  0  0  0  0  0  0  0
   -0.6745    2.1501    0.5732 H   0  0  0  0  0  0  0  0  0  0  0  0
   -0.9509    0.5126    1.4171 H   0  0  0  0  0  0  0  0  0  0  0  0
   -0.1332    0.3490   -0.6836 C   0  0  0  0  0  0  0  0  0  0  0  0
   -0.5711   -0.6782   -0.8763 H   0  0  0  0  0  0  0  0  0  0  0  0
    0.1302    1.0736   -1.5012 H   0  0  0  0  0  0  0  0  0  0  0  0
    1.6599   -0.1160    0.0262 Br  0  0  0  0  0  0  0  0  0  0  0  0
   -2.5093    0.9908   -0.1895 C   0  0  0  0  0  0  0  0  0  0  0  0
   -2.2671    1.0564   -1.2141 H   0  0  0  0  0  0  0  0  0  0  0  0
   -3.0694    1.9089    0.0846 H   0  0  0  0  0  0  0  0  0  0  0  0
   -3.0901   -0.2973    0.2184 C   0  0  0  0  0  0  0  0  0  0  0  0
   -4.0740   -0.3445   -0.3050 H   0  0  0  0  0  0  0  0  0  0  0  0
   -3.5463    0.1985    1.1484 H   0  0  0  0  0  0  0  0  0  0  0  0
   -2.2455   -1.3559    0.0884 O   0  0  0  0  0  1  0  0  0  0  0  0
  1  2  1  0  0  0  0
  1  3  1  0  0  0  0
  4  7  1  0  0  0  0
  4  1  1  0  0  0  0
  5  4  1  0  0  0  0
  6  4  1  0  0  0  0
  8 10  1  0  0  0  0
  8 11  1  0  0  0  0
  8  1  1  0  0  0  0
  9  8  1  0  0  0  0
 11 13  1  0  0  0  0
 12 11  1  0  0  0  0
 14 11  1  0  0  0  0
M  END
$$$$
Title Card Required
 OpenBabel07152211483D

 14 13  0  0  0  0  0  0  0  0999 V2000
   -0.9240    1.0422    0.4269 C   0  0  0  0  0  0  0  0  0  0  0  0
   -0.7414    2.0587    0.6386 H   0  0  0  0  0  0  0  0  0  0  0  0
   -0.9454    0.5571    1.3740 H   0  0  0  0  0  0  0  0  0  0  0  0
   -0.1363    0.3539   -0.6856 C   0  0  0  0  0  0  0  0  0  0  0  0
   -0.5915   -0.6957   -0.8685 H   0  0  0  0  0  0  0  0  0  0  0  0
    0.1192    0.9983   -1.5054 H   0  0  0  0  0  0  0  0  0  0  0  0
    1.6611   -0.1164    0.0256 Br  0  0  0  0  0  0  0  0  0  0  0  0
   -2.5067    0.9972   -0.1982 C   0  0  0  0  0  0  0  0  0  0  0  0
   -2.2325    0.9738   -1.2080 H   0  0  0  0  0  0  0  0  0  0  0  0
   -3.0599    1.8672    0.1438 H   0  0  0  0  0  0  0  0  0  0  0  0
   -3.0888   -0.2908    0.2141 C   0  0  0  0  0  0  0  0  0  0  0  0
   -4.0830   -0.3683   -0.2997 H   0  0  0  0  0  0  0  0  0  0  0  0
   -3.6538    0.0908    1.1326 H   0  0  0  0  0  0  0  0  0  0  0  0
   -2.2455   -1.3484    0.0934 O   0  0  0  0  0  1  0  0  0  0  0  0
  1  2  1  0  0  0  0
  1  3  1  0  0  0  0
  4  7  1  0  0  0  0
  4  1  1  0  0  0  0
  5  4  1  0  0  0  0
  6  4  1  0  0  0  0
  8 10  1  0  0  0  0
  8 11  1  0  0  0  0
  8  1  1  0  0  0  0
  9  8  1  0  0  0  0
 11 13  1  0  0  0  0
 12 11  1  0  0  0  0
 14 11  1  0  0  0  0
M  END
$$$$
Title Card Required
 OpenBabel07152211483D

 14 13  0  0  0  0  0  0  0  0999 V2000
   -0.9249    1.0495    0.4288 C   0  0  0  0  0  0  0  0  0  0  0  0
   -0.7917    1.9998    0.7057 H   0  0  0  0  0  0  0  0  0  0  0  0
   -0.9355    0.5797    1.3444 H   0  0  0  0  0  0  0  0  0  0  0  0
   -0.1397    0.3564   -0.6841 C   0  0  0  0  0  0  0  0  0  0  0  0
   -0.6115   -0.6769   -0.8581 H   0  0  0  0  0  0  0  0  0  0  0  0
    0.1026    0.9246   -1.5274 H   0  0  0  0  0  0  0  0  0  0  0  0
    1.6627   -0.1169    0.0249 Br  0  0  0  0  0  0  0  0  0  0  0  0
   -2.4976    1.0052   -0.2043 C   0  0  0  0  0  0  0  0  0  0  0  0
   -2.2025    0.8960   -1.2475 H   0  0  0  0  0  0  0  0  0  0  0  0
   -3.0551    1.8337    0.2022 H   0  0  0  0  0  0  0  0  0  0  0  0
   -3.0886   -0.2871    0.2091 C   0  0  0  0  0  0  0  0  0  0  0  0
   -4.0971   -0.3999   -0.3174 H   0  0  0  0  0  0  0  0  0  0  0  0
   -3.7500   -0.0456    1.1466 H   0  0  0  0  0  0  0  0  0  0  0  0
   -2.2473   -1.3388    0.0998 O   0  0  0  0  0  1  0  0  0  0  0  0
  1  2  1  0  0  0  0
  1  3  1  0  0  0  0
  4  7  1  0  0  0  0
  4  1  1  0  0  0  0
  5  4  1  0  0  0  0
  6  4  1  0  0  0  0
  8 10  1  0  0  0  0
  8 11  1  0  0  0  0
  8  1  1  0  0  0  0
  9  8  1  0  0  0  0
 11 13  1  0  0  0  0
 12 11  1  0  0  0  0
 14 11  1  0  0  0  0
M  END
$$$$
Title Card Required
 OpenBabel07152211483D

 14 13  0  0  0  0  0  0  0  0999 V2000
   -0.9329    1.0526    0.4231 C   0  0  0  0  0  0  0  0  0  0  0  0
   -0.8099    2.0333    0.7787 H   0  0  0  0  0  0  0  0  0  0  0  0
   -0.9232    0.5546    1.3556 H   0  0  0  0  0  0  0  0  0  0  0  0
   -0.1433    0.3553   -0.6770 C   0  0  0  0  0  0  0  0  0  0  0  0
   -0.6306   -0.6235   -0.8420 H   0  0  0  0  0  0  0  0  0  0  0  0
    0.0859    0.8718   -1.5843 H   0  0  0  0  0  0  0  0  0  0  0  0
    1.6644   -0.1174    0.0242 Br  0  0  0  0  0  0  0  0  0  0  0  0
   -2.4811    1.0127   -0.2081 C   0  0  0  0  0  0  0  0  0  0  0  0
   -2.1918    0.8356   -1.3060 H   0  0  0  0  0  0  0  0  0  0  0  0
   -3.0586    1.8200    0.2496 H   0  0  0  0  0  0  0  0  0  0  0  0
   -3.0909   -0.2881    0.2040 C   0  0  0  0  0  0  0  0  0  0  0  0
   -4.1062   -0.4326   -0.3625 H   0  0  0  0  0  0  0  0  0  0  0  0
   -3.8168   -0.1963    1.1811 H   0  0  0  0  0  0  0  0  0  0  0  0
   -2.2509   -1.3273    0.1074 O   0  0  0  0  0  1  0  0  0  0  0  0
  1  2  1  0  0  0  0
  1  3  1  0  0  0  0
  4  7  1  0  0  0  0
  4  1  1  0  0  0  0
  5  4  1  0  0  0  0
  6  4  1  0  0  0  0
  8 11  1  0  0  0  0
  8 10  1  0  0  0  0
  8  1  1  0  0  0  0
  9  8  1  0  0  0  0
 11 13  1  0  0  0  0
 12 11  1  0  0  0  0
 14 11  1  0  0  0  0
M  END
$$$$
Title Card Required
 OpenBabel07152211483D

 14 13  0  0  0  0  0  0  0  0999 V2000
   -0.9467    1.0542    0.4135 C   0  0  0  0  0  0  0  0  0  0  0  0
   -0.7988    2.1148    0.8370 H   0  0  0  0  0  0  0  0  0  0  0  0
   -0.9115    0.4938    1.3851 H   0  0  0  0  0  0  0  0  0  0  0  0
   -0.1456    0.3534   -0.6664 C   0  0  0  0  0  0  0  0  0  0  0  0
   -0.6535   -0.5673   -0.8216 H   0  0  0  0  0  0  0  0  0  0  0  0
    0.0677    0.8395   -1.6534 H   0  0  0  0  0  0  0  0  0  0  0  0
    1.6662   -0.1178    0.0235 Br  0  0  0  0  0  0  0  0  0  0  0  0
   -2.4596    1.0183   -0.2104 C   0  0  0  0  0  0  0  0  0  0  0  0
   -2.2105    0.8066   -1.3452 H   0  0  0  0  0  0  0  0  0  0  0  0
   -3.0649    1.8239    0.2726 H   0  0  0  0  0  0  0  0  0  0  0  0
   -3.0969   -0.2949    0.1997 C   0  0  0  0  0  0  0  0  0  0  0  0
   -4.0995   -0.4559   -0.4245 H   0  0  0  0  0  0  0  0  0  0  0  0
   -3.8400   -0.3329    1.2154 H   0  0  0  0  0  0  0  0  0  0  0  0
   -2.2557   -1.3150    0.1153 O   0  0  0  0  0  1  0  0  0  0  0  0
  1  2  1  0  0  0  0
  1  3  1  0  0  0  0
  4  7  1  0  0  0  0
  4  1  1  0  0  0  0
  5  4  1  0  0  0  0
  6  4  1  0  0  0  0
  8 11  1  0  0  0  0
  8 10  1  0  0  0  0
  8  1  1  0  0  0  0
  9  8  1  0  0  0  0
 11 13  1  0  0  0  0
 12 11  1  0  0  0  0
 14 11  1  0  0  0  0
M  END
$$$$
Title Card Required
 OpenBabel07152211483D

 14 13  0  0  0  0  0  0  0  0999 V2000
   -0.9664    1.0579    0.4045 C   0  0  0  0  0  0  0  0  0  0  0  0
   -0.7673    2.1835    0.8638 H   0  0  0  0  0  0  0  0  0  0  0  0
   -0.9029    0.4201    1.3937 H   0  0  0  0  0  0  0  0  0  0  0  0
   -0.1448    0.3544   -0.6542 C   0  0  0  0  0  0  0  0  0  0  0  0
   -0.6933   -0.5385   -0.7968 H   0  0  0  0  0  0  0  0  0  0  0  0
    0.0407    0.8114   -1.7065 H   0  0  0  0  0  0  0  0  0  0  0  0
    1.6682   -0.1184    0.0227 Br  0  0  0  0  0  0  0  0  0  0  0  0
   -2.4328    1.0226   -0.2111 C   0  0  0  0  0  0  0  0  0  0  0  0
   -2.2620    0.8120   -1.3490 H   0  0  0  0  0  0  0  0  0  0  0  0
   -3.0655    1.8361    0.2632 H   0  0  0  0  0  0  0  0  0  0  0  0
   -3.1079   -0.3090    0.1959 C   0  0  0  0  0  0  0  0  0  0  0  0
   -4.0701   -0.4651   -0.4998 H   0  0  0  0  0  0  0  0  0  0  0  0
   -3.8199   -0.4538    1.2379 H   0  0  0  0  0  0  0  0  0  0  0  0
   -2.2613   -1.3011    0.1240 O   0  0  0  0  0  1  0  0  0  0  0  0
  1  2  1  0  0  0  0
  1  3  1  0  0  0  0
  4  7  1  0  0  0  0
  4  1  1  0  0  0  0
  5  4  1  0  0  0  0
  6  4  1  0  0  0  0
  8 11  1  0  0  0  0
  8 10  1  0  0  0  0
  8  1  1  0  0  0  0
  9  8  1  0  0  0  0
 11 13  1  0  0  0  0
 12 11  1  0  0  0  0
 14 11  1  0  0  0  0
M  END
$$$$
Title Card Required
 OpenBabel07152211483D

 14 13  0  0  0  0  0  0  0  0999 V2000
   -0.9884    1.0648    0.4003 C   0  0  0  0  0  0  0  0  0  0  0  0
   -0.7278    2.1942    0.8452 H   0  0  0  0  0  0  0  0  0  0  0  0
   -0.9028    0.3646    1.3544 H   0  0  0  0  0  0  0  0  0  0  0  0
   -0.1406    0.3592   -0.6438 C   0  0  0  0  0  0  0  0  0  0  0  0
   -0.7461   -0.5520   -0.7688 H   0  0  0  0  0  0  0  0  0  0  0  0
    0.0059    0.7834   -1.7139 H   0  0  0  0  0  0  0  0  0  0  0  0
    1.6702   -0.1189    0.0219 Br  0  0  0  0  0  0  0  0  0  0  0  0
   -2.4058    1.0257   -0.2095 C   0  0  0  0  0  0  0  0  0  0  0  0
   -2.3350    0.8526   -1.3148 H   0  0  0  0  0  0  0  0  0  0  0  0
   -3.0526    1.8479    0.2167 H   0  0  0  0  0  0  0  0  0  0  0  0
   -3.1229   -0.3292    0.1929 C   0  0  0  0  0  0  0  0  0  0  0  0
   -4.0215   -0.4552   -0.5720 H   0  0  0  0  0  0  0  0  0  0  0  0
   -3.7637   -0.5332    1.2355 H   0  0  0  0  0  0  0  0  0  0  0  0
   -2.2664   -1.2880    0.1323 O   0  0  0  0  0  1  0  0  0  0  0  0
  1  2  1  0  0  0  0
  1  3  1  0  0  0  0
  4  7  1  0  0  0  0
  4  1  1  0  0  0  0
  5  4  1  0  0  0  0
  6  4  1  0  0  0  0
  8 11  1  0  0  0  0
  8 10  1  0  0  0  0
  8  1  1  0  0  0  0
  9  8  1  0  0  0  0
 11 13  1  0  0  0  0
 12 11  1  0  0  0  0
 14 11  1  0  0  0  0
M  END
$$$$
Title Card Required
 OpenBabel07152211483D

 14 13  0  0  0  0  0  0  0  0999 V2000
   -1.0076    1.0734    0.4007 C   0  0  0  0  0  0  0  0  0  0  0  0
   -0.6941    2.1482    0.7943 H   0  0  0  0  0  0  0  0  0  0  0  0
   -0.9128    0.3394    1.2805 H   0  0  0  0  0  0  0  0  0  0  0  0
   -0.1358    0.3648   -0.6365 C   0  0  0  0  0  0  0  0  0  0  0  0
   -0.7887   -0.5797   -0.7372 H   0  0  0  0  0  0  0  0  0  0  0  0
   -0.0284    0.7596   -1.6816 H   0  0  0  0  0  0  0  0  0  0  0  0
    1.6719   -0.1193    0.0211 Br  0  0  0  0  0  0  0  0  0  0  0  0
   -2.3840    1.0279   -0.2048 C   0  0  0  0  0  0  0  0  0  0  0  0
   -2.4069    0.9108   -1.2722 H   0  0  0  0  0  0  0  0  0  0  0  0
   -3.0295    1.8576    0.1503 H   0  0  0  0  0  0  0  0  0  0  0  0
   -3.1390   -0.3506    0.1908 C   0  0  0  0  0  0  0  0  0  0  0  0
   -3.9695   -0.4317   -0.6287 H   0  0  0  0  0  0  0  0  0  0  0  0
   -3.6966   -0.5637    1.2111 H   0  0  0  0  0  0  0  0  0  0  0  0
   -2.2692   -1.2782    0.1392 O   0  0  0  0  0  1  0  0  0  0  0  0
  1  2  1  0  0  0  0
  1  3  1  0  0  0  0
  4  7  1  0  0  0  0
  4  1  1  0  0  0  0
  5  4  1  0  0  0  0
  6  4  1  0  0  0  0
  8 10  1  0  0  0  0
  8 11  1  0  0  0  0
  8  1  1  0  0  0  0
  9  8  1  0  0  0  0
 11 13  1  0  0  0  0
 12 11  1  0  0  0  0
 14 11  1  0  0  0  0
M  END
$$$$
Title Card Required
 OpenBabel07152211483D

 14 13  0  0  0  0  0  0  0  0999 V2000
   -1.0237    1.0829    0.4028 C   0  0  0  0  0  0  0  0  0  0  0  0
   -0.6666    2.0683    0.7261 H   0  0  0  0  0  0  0  0  0  0  0  0
   -0.9323    0.3335    1.1931 H   0  0  0  0  0  0  0  0  0  0  0  0
   -0.1324    0.3689   -0.6306 C   0  0  0  0  0  0  0  0  0  0  0  0
   -0.8113   -0.6010   -0.6995 H   0  0  0  0  0  0  0  0  0  0  0  0
   -0.0588    0.7448   -1.6330 H   0  0  0  0  0  0  0  0  0  0  0  0
    1.6735   -0.1197    0.0202 Br  0  0  0  0  0  0  0  0  0  0  0  0
   -2.3671    1.0300   -0.1966 C   0  0  0  0  0  0  0  0  0  0  0  0
   -2.4714    0.9764   -1.2474 H   0  0  0  0  0  0  0  0  0  0  0  0
   -3.0025    1.8721    0.0767 H   0  0  0  0  0  0  0  0  0  0  0  0
   -3.1557   -0.3718    0.1887 C   0  0  0  0  0  0  0  0  0  0  0  0
   -3.9215   -0.4002   -0.6736 H   0  0  0  0  0  0  0  0  0  0  0  0
   -3.6349   -0.5554    1.1764 H   0  0  0  0  0  0  0  0  0  0  0  0
   -2.2694   -1.2720    0.1451 O   0  0  0  0  0  1  0  0  0  0  0  0
  1  2  1  0  0  0  0
  1  3  1  0  0  0  0
  4  7  1  0  0  0  0
  4  1  1  0  0  0  0
  5  4  1  0  0  0  0
  6  4  1  0  0  0  0
  8 10  1  0  0  0  0
  8 11  1  0  0  0  0
  8  1  1  0  0  0  0
  9  8  1  0  0  0  0
 11 13  1  0  0  0  0
 12 11  1  0  0  0  0
 14 11  1  0  0  0  0
M  END
$$$$
Title Card Required
 OpenBabel07152211483D

 14 13  0  0  0  0  0  0  0  0999 V2000
   -1.0378    1.0920    0.4036 C   0  0  0  0  0  0  0  0  0  0  0  0
   -0.6324    1.9881    0.6518 H   0  0  0  0  0  0  0  0  0  0  0  0
   -0.9634    0.3285    1.1132 H   0  0  0  0  0  0  0  0  0  0  0  0
   -0.1316    0.3696   -0.6228 C   0  0  0  0  0  0  0  0  0  0  0  0
   -0.8070   -0.6069   -0.6520 H   0  0  0  0  0  0  0  0  0  0  0  0
   -0.0834    0.7492   -1.5937 H   0  0  0  0  0  0  0  0  0  0  0  0
    1.6752   -0.1201    0.0193 Br  0  0  0  0  0  0  0  0  0  0  0  0
   -2.3549    1.0324   -0.1838 C   0  0  0  0  0  0  0  0  0  0  0  0
   -2.5277    1.0497   -1.2539 H   0  0  0  0  0  0  0  0  0  0  0  0
   -2.9758    1.9039    0.0009 H   0  0  0  0  0  0  0  0  0  0  0  0
   -3.1734   -0.3930    0.1841 C   0  0  0  0  0  0  0  0  0  0  0  0
   -3.8808   -0.3615   -0.7113 H   0  0  0  0  0  0  0  0  0  0  0  0
   -3.5945   -0.5090    1.1502 H   0  0  0  0  0  0  0  0  0  0  0  0
   -2.2658   -1.2700    0.1506 O   0  0  0  0  0  1  0  0  0  0  0  0
  1  2  1  0  0  0  0
  1  3  1  0  0  0  0
  4  7  1  0  0  0  0
  4  1  1  0  0  0  0
  5  4  1  0  0  0  0
  6  4  1  0  0  0  0
  8 10  1  0  0  0  0
  8 11  1  0  0  0  0
  8  1  1  0  0  0  0
  9  8  1  0  0  0  0
 11 13  1  0  0  0  0
 12 11  1  0  0  0  0
 14 11  1  0  0  0  0
M  END
$$$$
Title Card Required
 OpenBabel07152211483D

 14 13  0  0  0  0  0  0  0  0999 V2000
   -1.0494    1.0970    0.3981 C   0  0  0  0  0  0  0  0  0  0  0  0
   -0.5628    1.9823    0.5975 H   0  0  0  0  0  0  0  0  0  0  0  0
   -1.0079    0.2967    1.0857 H   0  0  0  0  0  0  0  0  0  0  0  0
   -0.1357    0.3638   -0.6098 C   0  0  0  0  0  0  0  0  0  0  0  0
   -0.7614   -0.5882   -0.5982 H   0  0  0  0  0  0  0  0  0  0  0  0
   -0.0965    0.7890   -1.5955 H   0  0  0  0  0  0  0  0  0  0  0  0
    1.6771   -0.1204    0.0181 Br  0  0  0  0  0  0  0  0  0  0  0  0
   -2.3524    1.0362   -0.1683 C   0  0  0  0  0  0  0  0  0  0  0  0
   -2.5590    1.1249   -1.2873 H   0  0  0  0  0  0  0  0  0  0  0  0
   -2.9533    1.9655   -0.0619 H   0  0  0  0  0  0  0  0  0  0  0  0
   -3.1905   -0.4121    0.1732 C   0  0  0  0  0  0  0  0  0  0  0  0
   -3.8586   -0.3203   -0.7377 H   0  0  0  0  0  0  0  0  0  0  0  0
   -3.6089   -0.4145    1.1675 H   0  0  0  0  0  0  0  0  0  0  0  0
   -2.2565   -1.2749    0.1561 O   0  0  0  0  0  1  0  0  0  0  0  0
  1  2  1  0  0  0  0
  1  3  1  0  0  0  0
  4  5  1  0  0  0  0
  4  7  1  0  0  0  0
  4  1  1  0  0  0  0
  6  4  1  0  0  0  0
  8 10  1  0  0  0  0
  8 11  1  0  0  0  0
  8  1  1  0  0  0  0
  9  8  1  0  0  0  0
 11 13  1  0  0  0  0
 12 11  1  0  0  0  0
 14 11  1  0  0  0  0
M  END
$$$$
Title Card Required
 OpenBabel07152211483D

 14 13  0  0  0  0  0  0  0  0999 V2000
   -1.0528    1.0963    0.3887 C   0  0  0  0  0  0  0  0  0  0  0  0
   -0.4845    2.0477    0.5836 H   0  0  0  0  0  0  0  0  0  0  0  0
   -1.0516    0.2551    1.1238 H   0  0  0  0  0  0  0  0  0  0  0  0
   -0.1428    0.3546   -0.5970 C   0  0  0  0  0  0  0  0  0  0  0  0
   -0.6946   -0.5665   -0.5645 H   0  0  0  0  0  0  0  0  0  0  0  0
   -0.0952    0.8409   -1.6173 H   0  0  0  0  0  0  0  0  0  0  0  0
    1.6789   -0.1206    0.0169 Br  0  0  0  0  0  0  0  0  0  0  0  0
   -2.3638    1.0431   -0.1588 C   0  0  0  0  0  0  0  0  0  0  0  0
   -2.5433    1.1719   -1.3090 H   0  0  0  0  0  0  0  0  0  0  0  0
   -2.9357    2.0280   -0.0836 H   0  0  0  0  0  0  0  0  0  0  0  0
   -3.2006   -0.4229    0.1597 C   0  0  0  0  0  0  0  0  0  0  0  0
   -3.8660   -0.2965   -0.7432 H   0  0  0  0  0  0  0  0  0  0  0  0
   -3.6721   -0.3034    1.2084 H   0  0  0  0  0  0  0  0  0  0  0  0
   -2.2451   -1.2852    0.1604 O   0  0  0  0  0  1  0  0  0  0  0  0
  1  2  1  0  0  0  0
  1  3  1  0  0  0  0
  4  5  1  0  0  0  0
  4  7  1  0  0  0  0
  4  1  1  0  0  0  0
  6  4  1  0  0  0  0
  8 10  1  0  0  0  0
  8 11  1  0  0  0  0
  8  1  1  0  0  0  0
  9  8  1  0  0  0  0
 11 14  1  0  0  0  0
 11 13  1  0  0  0  0
 12 11  1  0  0  0  0
M  END
$$$$
Title Card Required
 OpenBabel07152211483D

 14 13  0  0  0  0  0  0  0  0999 V2000
   -1.0463    1.0934    0.3798 C   0  0  0  0  0  0  0  0  0  0  0  0
   -0.4347    2.1088    0.5890 H   0  0  0  0  0  0  0  0  0  0  0  0
   -1.0943    0.2409    1.1888 H   0  0  0  0  0  0  0  0  0  0  0  0
   -0.1509    0.3466   -0.5865 C   0  0  0  0  0  0  0  0  0  0  0  0
   -0.6292   -0.5800   -0.5544 H   0  0  0  0  0  0  0  0  0  0  0  0
   -0.0858    0.8820   -1.6167 H   0  0  0  0  0  0  0  0  0  0  0  0
    1.6806   -0.1206    0.0158 Br  0  0  0  0  0  0  0  0  0  0  0  0
   -2.3882    1.0554   -0.1562 C   0  0  0  0  0  0  0  0  0  0  0  0
   -2.4865    1.1928   -1.3053 H   0  0  0  0  0  0  0  0  0  0  0  0
   -2.9148    2.0761   -0.0689 H   0  0  0  0  0  0  0  0  0  0  0  0
   -3.2055   -0.4272    0.1467 C   0  0  0  0  0  0  0  0  0  0  0  0
   -3.8969   -0.2936   -0.7324 H   0  0  0  0  0  0  0  0  0  0  0  0
   -3.7538   -0.1870    1.2250 H   0  0  0  0  0  0  0  0  0  0  0  0
   -2.2336   -1.2995    0.1646 O   0  0  0  0  0  1  0  0  0  0  0  0
  1  2  1  0  0  0  0
  1  3  1  0  0  0  0
  4  5  1  0  0  0  0
  4  7  1  0  0  0  0
  4  1  1  0  0  0  0
  6  4  1  0  0  0  0
  8 10  1  0  0  0  0
  8 11  1  0  0  0  0
  8  1  1  0  0  0  0
  9  8  1  0  0  0  0
 11 14  1  0  0  0  0
 11 13  1  0  0  0  0
 12 11  1  0  0  0  0
M  END
$$$$
Title Card Required
 OpenBabel07152211483D

 14 13  0  0  0  0  0  0  0  0999 V2000
   -1.0313    1.0899    0.3753 C   0  0  0  0  0  0  0  0  0  0  0  0
   -0.4367    2.1231    0.6021 H   0  0  0  0  0  0  0  0  0  0  0  0
   -1.1269    0.2776    1.2457 H   0  0  0  0  0  0  0  0  0  0  0  0
   -0.1575    0.3428   -0.5802 C   0  0  0  0  0  0  0  0  0  0  0  0
   -0.5861   -0.6443   -0.5705 H   0  0  0  0  0  0  0  0  0  0  0  0
   -0.0730    0.8956   -1.5777 H   0  0  0  0  0  0  0  0  0  0  0  0
    1.6823   -0.1204    0.0147 Br  0  0  0  0  0  0  0  0  0  0  0  0
   -2.4203    1.0725   -0.1600 C   0  0  0  0  0  0  0  0  0  0  0  0
   -2.4050    1.1884   -1.2798 H   0  0  0  0  0  0  0  0  0  0  0  0
   -2.8936    2.0963   -0.0233 H   0  0  0  0  0  0  0  0  0  0  0  0
   -3.2052   -0.4249    0.1372 C   0  0  0  0  0  0  0  0  0  0  0  0
   -3.9419   -0.3147   -0.7097 H   0  0  0  0  0  0  0  0  0  0  0  0
   -3.8245   -0.0922    1.1935 H   0  0  0  0  0  0  0  0  0  0  0  0
   -2.2247   -1.3149    0.1688 O   0  0  0  0  0  1  0  0  0  0  0  0
  1  2  1  0  0  0  0
  1  3  1  0  0  0  0
  4  5  1  0  0  0  0
  4  7  1  0  0  0  0
  4  1  1  0  0  0  0
  6  4  1  0  0  0  0
  8 10  1  0  0  0  0
  8 11  1  0  0  0  0
  8  1  1  0  0  0  0
  9  8  1  0  0  0  0
 11 14  1  0  0  0  0
 11 13  1  0  0  0  0
 12 11  1  0  0  0  0
M  END
$$$$
Title Card Required
 OpenBabel07152211483D

 14 13  0  0  0  0  0  0  0  0999 V2000
   -1.0140    1.0862    0.3759 C   0  0  0  0  0  0  0  0  0  0  0  0
   -0.4786    2.0934    0.6150 H   0  0  0  0  0  0  0  0  0  0  0  0
   -1.1431    0.3532    1.2780 H   0  0  0  0  0  0  0  0  0  0  0  0
   -0.1626    0.3405   -0.5772 C   0  0  0  0  0  0  0  0  0  0  0  0
   -0.5606   -0.7148   -0.6040 H   0  0  0  0  0  0  0  0  0  0  0  0
   -0.0598    0.8882   -1.5214 H   0  0  0  0  0  0  0  0  0  0  0  0
    1.6838   -0.1202    0.0138 Br  0  0  0  0  0  0  0  0  0  0  0  0
   -2.4516    1.0903   -0.1667 C   0  0  0  0  0  0  0  0  0  0  0  0
   -2.3245    1.1707   -1.2535 H   0  0  0  0  0  0  0  0  0  0  0  0
   -2.8803    2.0947    0.0364 H   0  0  0  0  0  0  0  0  0  0  0  0
   -3.2013   -0.4176    0.1313 C   0  0  0  0  0  0  0  0  0  0  0  0
   -3.9862   -0.3531   -0.6832 H   0  0  0  0  0  0  0  0  0  0  0  0
   -3.8681   -0.0345    1.1279 H   0  0  0  0  0  0  0  0  0  0  0  0
   -2.2199   -1.3285    0.1728 O   0  0  0  0  0  1  0  0  0  0  0  0
  1  2  1  0  0  0  0
  1  3  1  0  0  0  0
  4  7  1  0  0  0  0
  4  1  1  0  0  0  0
  5  4  1  0  0  0  0
  6  4  1  0  0  0  0
  8 10  1  0  0  0  0
  8 11  1  0  0  0  0
  8  1  1  0  0  0  0
  9  8  1  0  0  0  0
 11 14  1  0  0  0  0
 11 13  1  0  0  0  0
 12 11  1  0  0  0  0
M  END
$$$$
Title Card Required
 OpenBabel07152211483D

 14 13  0  0  0  0  0  0  0  0999 V2000
   -0.9974    1.0821    0.3804 C   0  0  0  0  0  0  0  0  0  0  0  0
   -0.5408    2.0423    0.6269 H   0  0  0  0  0  0  0  0  0  0  0  0
   -1.1450    0.4511    1.2930 H   0  0  0  0  0  0  0  0  0  0  0  0
   -0.1671    0.3358   -0.5750 C   0  0  0  0  0  0  0  0  0  0  0  0
   -0.5418   -0.7612   -0.6473 H   0  0  0  0  0  0  0  0  0  0  0  0
   -0.0443    0.8761   -1.4723 H   0  0  0  0  0  0  0  0  0  0  0  0
    1.6853   -0.1198    0.0130 Br  0  0  0  0  0  0  0  0  0  0  0  0
   -2.4805    1.1076   -0.1746 C   0  0  0  0  0  0  0  0  0  0  0  0
   -2.2517    1.1494   -1.2390 H   0  0  0  0  0  0  0  0  0  0  0  0
   -2.8791    2.0848    0.1032 H   0  0  0  0  0  0  0  0  0  0  0  0
   -3.1950   -0.4066    0.1275 C   0  0  0  0  0  0  0  0  0  0  0  0
   -4.0247   -0.4043   -0.6560 H   0  0  0  0  0  0  0  0  0  0  0  0
   -3.8878   -0.0073    1.0437 H   0  0  0  0  0  0  0  0  0  0  0  0
   -2.2186   -1.3406    0.1769 O   0  0  0  0  0  1  0  0  0  0  0  0
  1  2  1  0  0  0  0
  1  3  1  0  0  0  0
  4  7  1  0  0  0  0
  4  1  1  0  0  0  0
  5  4  1  0  0  0  0
  6  4  1  0  0  0  0
  8 10  1  0  0  0  0
  8 11  1  0  0  0  0
  8  1  1  0  0  0  0
  9  8  1  0  0  0  0
 11 14  1  0  0  0  0
 11 13  1  0  0  0  0
 12 11  1  0  0  0  0
M  END
$$$$
Title Card Required
 OpenBabel07152211483D

 14 13  0  0  0  0  0  0  0  0999 V2000
   -0.9829    1.0762    0.3878 C   0  0  0  0  0  0  0  0  0  0  0  0
   -0.6070    2.0001    0.6406 H   0  0  0  0  0  0  0  0  0  0  0  0
   -1.1348    0.5586    1.3058 H   0  0  0  0  0  0  0  0  0  0  0  0
   -0.1715    0.3258   -0.5719 C   0  0  0  0  0  0  0  0  0  0  0  0
   -0.5263   -0.7705   -0.6975 H   0  0  0  0  0  0  0  0  0  0  0  0
   -0.0229    0.8730   -1.4493 H   0  0  0  0  0  0  0  0  0  0  0  0
    1.6869   -0.1193    0.0122 Br  0  0  0  0  0  0  0  0  0  0  0  0
   -2.5071    1.1237   -0.1834 C   0  0  0  0  0  0  0  0  0  0  0  0
   -2.1891    1.1308   -1.2391 H   0  0  0  0  0  0  0  0  0  0  0  0
   -2.8936    2.0748    0.1770 H   0  0  0  0  0  0  0  0  0  0  0  0
   -3.1866   -0.3919    0.1242 C   0  0  0  0  0  0  0  0  0  0  0  0
   -4.0542   -0.4683   -0.6295 H   0  0  0  0  0  0  0  0  0  0  0  0
   -3.8868   -0.0068    0.9513 H   0  0  0  0  0  0  0  0  0  0  0  0
   -2.2206   -1.3518    0.1816 O   0  0  0  0  0  1  0  0  0  0  0  0
  1  2  1  0  0  0  0
  1  3  1  0  0  0  0
  4  7  1  0  0  0  0
  4  1  1  0  0  0  0
  5  4  1  0  0  0  0
  6  4  1  0  0  0  0
  8 11  1  0  0  0  0
  8 10  1  0  0  0  0
  8  1  1  0  0  0  0
  9  8  1  0  0  0  0
 11 14  1  0  0  0  0
 11 13  1  0  0  0  0
 12 11  1  0  0  0  0
M  END
$$$$
Title Card Required
 OpenBabel07152211483D

 14 13  0  0  0  0  0  0  0  0999 V2000
   -0.9728    1.0665    0.3961 C   0  0  0  0  0  0  0  0  0  0  0  0
   -0.6582    2.0107    0.6594 H   0  0  0  0  0  0  0  0  0  0  0  0
   -1.1154    0.6548    1.3430 H   0  0  0  0  0  0  0  0  0  0  0  0
   -0.1758    0.3088   -0.5672 C   0  0  0  0  0  0  0  0  0  0  0  0
   -0.5161   -0.7360   -0.7519 H   0  0  0  0  0  0  0  0  0  0  0  0
    0.0061    0.8857   -1.4616 H   0  0  0  0  0  0  0  0  0  0  0  0
    1.6889   -0.1187    0.0114 Br  0  0  0  0  0  0  0  0  0  0  0  0
   -2.5309    1.1379   -0.1940 C   0  0  0  0  0  0  0  0  0  0  0  0
   -2.1456    1.1234   -1.2498 H   0  0  0  0  0  0  0  0  0  0  0  0
   -2.9272    2.0664    0.2551 H   0  0  0  0  0  0  0  0  0  0  0  0
   -3.1750   -0.3734    0.1193 C   0  0  0  0  0  0  0  0  0  0  0  0
   -4.0683   -0.5443   -0.6073 H   0  0  0  0  0  0  0  0  0  0  0  0
   -3.8714   -0.0303    0.8726 H   0  0  0  0  0  0  0  0  0  0  0  0
   -2.2265   -1.3618    0.1873 O   0  0  0  0  0  1  0  0  0  0  0  0
  1  2  1  0  0  0  0
  1  3  1  0  0  0  0
  4  7  1  0  0  0  0
  4  1  1  0  0  0  0
  5  4  1  0  0  0  0
  6  4  1  0  0  0  0
  8 11  1  0  0  0  0
  8 10  1  0  0  0  0
  8  1  1  0  0  0  0
  9  8  1  0  0  0  0
 11 14  1  0  0  0  0
 11 13  1  0  0  0  0
 12 11  1  0  0  0  0
M  END
$$$$
Title Card Required
 OpenBabel07152211483D

 14 13  0  0  0  0  0  0  0  0999 V2000
   -0.9697    1.0541    0.4042 C   0  0  0  0  0  0  0  0  0  0  0  0
   -0.6827    2.0872    0.6729 H   0  0  0  0  0  0  0  0  0  0  0  0
   -1.0901    0.7145    1.4219 H   0  0  0  0  0  0  0  0  0  0  0  0
   -0.1779    0.2880   -0.5626 C   0  0  0  0  0  0  0  0  0  0  0  0
   -0.5212   -0.6778   -0.8062 H   0  0  0  0  0  0  0  0  0  0  0  0
    0.0359    0.9037   -1.4912 H   0  0  0  0  0  0  0  0  0  0  0  0
    1.6911   -0.1179    0.0107 Br  0  0  0  0  0  0  0  0  0  0  0  0
   -2.5488    1.1484   -0.2060 C   0  0  0  0  0  0  0  0  0  0  0  0
   -2.1381    1.1389   -1.2611 H   0  0  0  0  0  0  0  0  0  0  0  0
   -2.9761    2.0520    0.3222 H   0  0  0  0  0  0  0  0  0  0  0  0
   -3.1595   -0.3539    0.1100 C   0  0  0  0  0  0  0  0  0  0  0  0
   -4.0581   -0.6219   -0.5965 H   0  0  0  0  0  0  0  0  0  0  0  0
   -3.8605   -0.0671    0.8521 H   0  0  0  0  0  0  0  0  0  0  0  0
   -2.2366   -1.3694    0.1940 O   0  0  0  0  0  1  0  0  0  0  0  0
  1  2  1  0  0  0  0
  1  3  1  0  0  0  0
  4  7  1  0  0  0  0
  4  1  1  0  0  0  0
  5  4  1  0  0  0  0
  6  4  1  0  0  0  0
  8 11  1  0  0  0  0
  8 10  1  0  0  0  0
  8  1  1  0  0  0  0
  9  8  1  0  0  0  0
 11 14  1  0  0  0  0
 11 13  1  0  0  0  0
 12 11  1  0  0  0  0
M  END
$$$$
Title Card Required
 OpenBabel07152211483D

 14 13  0  0  0  0  0  0  0  0999 V2000
   -0.9744    1.0442    0.4153 C   0  0  0  0  0  0  0  0  0  0  0  0
   -0.6889    2.1738    0.6574 H   0  0  0  0  0  0  0  0  0  0  0  0
   -1.0575    0.7377    1.5123 H   0  0  0  0  0  0  0  0  0  0  0  0
   -0.1753    0.2700   -0.5602 C   0  0  0  0  0  0  0  0  0  0  0  0
   -0.5574   -0.6472   -0.8625 H   0  0  0  0  0  0  0  0  0  0  0  0
    0.0556    0.9080   -1.5044 H   0  0  0  0  0  0  0  0  0  0  0  0
    1.6935   -0.1171    0.0100 Br  0  0  0  0  0  0  0  0  0  0  0  0
   -2.5592    1.1541   -0.2178 C   0  0  0  0  0  0  0  0  0  0  0  0
   -2.1758    1.1855   -1.2666 H   0  0  0  0  0  0  0  0  0  0  0  0
   -3.0304    2.0193    0.3602 H   0  0  0  0  0  0  0  0  0  0  0  0
   -3.1405   -0.3363    0.0949 C   0  0  0  0  0  0  0  0  0  0  0  0
   -4.0199   -0.6862   -0.6011 H   0  0  0  0  0  0  0  0  0  0  0  0
   -3.8642   -0.1074    0.9111 H   0  0  0  0  0  0  0  0  0  0  0  0
   -2.2505   -1.3735    0.2016 O   0  0  0  0  0  1  0  0  0  0  0  0
  1  2  1  0  0  0  0
  1  3  1  0  0  0  0
  4  7  1  0  0  0  0
  4  1  1  0  0  0  0
  5  4  1  0  0  0  0
  6  4  1  0  0  0  0
  8 11  1  0  0  0  0
  8 10  1  0  0  0  0
  8  1  1  0  0  0  0
  9  8  1  0  0  0  0
 11 14  1  0  0  0  0
 11 13  1  0  0  0  0
 12 11  1  0  0  0  0
M  END
$$$$
Title Card Required
 OpenBabel07152211483D

 14 13  0  0  0  0  0  0  0  0999 V2000
   -0.9858    1.0408    0.4311 C   0  0  0  0  0  0  0  0  0  0  0  0
   -0.6873    2.2118    0.6071 H   0  0  0  0  0  0  0  0  0  0  0  0
   -1.0202    0.7371    1.5618 H   0  0  0  0  0  0  0  0  0  0  0  0
   -0.1678    0.2593   -0.5608 C   0  0  0  0  0  0  0  0  0  0  0  0
   -0.6235   -0.6658   -0.9150 H   0  0  0  0  0  0  0  0  0  0  0  0
    0.0589    0.8920   -1.4830 H   0  0  0  0  0  0  0  0  0  0  0  0
    1.6959   -0.1163    0.0094 Br  0  0  0  0  0  0  0  0  0  0  0  0
   -2.5616    1.1544   -0.2261 C   0  0  0  0  0  0  0  0  0  0  0  0
   -2.2496    1.2580   -1.2712 H   0  0  0  0  0  0  0  0  0  0  0  0
   -3.0780    1.9670    0.3597 H   0  0  0  0  0  0  0  0  0  0  0  0
   -3.1226   -0.3236    0.0781 C   0  0  0  0  0  0  0  0  0  0  0  0
   -3.9611   -0.7187   -0.6182 H   0  0  0  0  0  0  0  0  0  0  0  0
   -3.8601   -0.1468    1.0073 H   0  0  0  0  0  0  0  0  0  0  0  0
   -2.2658   -1.3735    0.2091 O   0  0  0  0  0  1  0  0  0  0  0  0
  1  2  1  0  0  0  0
  1  3  1  0  0  0  0
  4  7  1  0  0  0  0
  4  1  1  0  0  0  0
  5  4  1  0  0  0  0
  6  4  1  0  0  0  0
  8 11  1  0  0  0  0
  8 10  1  0  0  0  0
  8  1  1  0  0  0  0
  9  8  1  0  0  0  0
 11 14  1  0  0  0  0
 11 13  1  0  0  0  0
 12 11  1  0  0  0  0
M  END
$$$$
Title Card Required
 OpenBabel07152211483D

 14 13  0  0  0  0  0  0  0  0999 V2000
   -1.0008    1.0438    0.4496 C   0  0  0  0  0  0  0  0  0  0  0  0
   -0.6845    2.1896    0.5361 H   0  0  0  0  0  0  0  0  0  0  0  0
   -0.9851    0.7254    1.5565 H   0  0  0  0  0  0  0  0  0  0  0  0
   -0.1588    0.2524   -0.5639 C   0  0  0  0  0  0  0  0  0  0  0  0
   -0.6921   -0.6940   -0.9458 H   0  0  0  0  0  0  0  0  0  0  0  0
    0.0510    0.8674   -1.4399 H   0  0  0  0  0  0  0  0  0  0  0  0
    1.6981   -0.1156    0.0090 Br  0  0  0  0  0  0  0  0  0  0  0  0
   -2.5578    1.1499   -0.2295 C   0  0  0  0  0  0  0  0  0  0  0  0
   -2.3394    1.3436   -1.2832 H   0  0  0  0  0  0  0  0  0  0  0  0
   -3.1174    1.9079    0.3325 H   0  0  0  0  0  0  0  0  0  0  0  0
   -3.1086   -0.3167    0.0637 C   0  0  0  0  0  0  0  0  0  0  0  0
   -3.8981   -0.7153   -0.6430 H   0  0  0  0  0  0  0  0  0  0  0  0
   -3.8326   -0.1806    1.0903 H   0  0  0  0  0  0  0  0  0  0  0  0
   -2.2807   -1.3702    0.2161 O   0  0  0  0  0  1  0  0  0  0  0  0
  1  2  1  0  0  0  0
  1  3  1  0  0  0  0
  4  7  1  0  0  0  0
  4  1  1  0  0  0  0
  5  4  1  0  0  0  0
  6  4  1  0  0  0  0
  8 11  1  0  0  0  0
  8 10  1  0  0  0  0
  8  1  1  0  0  0  0
  9  8  1  0  0  0  0
 11 14  1  0  0  0  0
 11 13  1  0  0  0  0
 12 11  1  0  0  0  0
M  END
$$$$
Title Card Required
 OpenBabel07152211483D

 14 13  0  0  0  0  0  0  0  0999 V2000
   -1.0178    1.0514    0.4675 C   0  0  0  0  0  0  0  0  0  0  0  0
   -0.6813    2.1239    0.4581 H   0  0  0  0  0  0  0  0  0  0  0  0
   -0.9567    0.7071    1.5133 H   0  0  0  0  0  0  0  0  0  0  0  0
   -0.1516    0.2455   -0.5676 C   0  0  0  0  0  0  0  0  0  0  0  0
   -0.7439   -0.7035   -0.9456 H   0  0  0  0  0  0  0  0  0  0  0  0
    0.0402    0.8528   -1.4018 H   0  0  0  0  0  0  0  0  0  0  0  0
    1.7002   -0.1150    0.0086 Br  0  0  0  0  0  0  0  0  0  0  0  0
   -2.5487    1.1409   -0.2290 C   0  0  0  0  0  0  0  0  0  0  0  0
   -2.4345    1.4333   -1.2999 H   0  0  0  0  0  0  0  0  0  0  0  0
   -3.1564    1.8555    0.2967 H   0  0  0  0  0  0  0  0  0  0  0  0
   -3.0979   -0.3149    0.0528 C   0  0  0  0  0  0  0  0  0  0  0  0
   -3.8449   -0.6815   -0.6764 H   0  0  0  0  0  0  0  0  0  0  0  0
   -3.7832   -0.2046    1.1416 H   0  0  0  0  0  0  0  0  0  0  0  0
   -2.2946   -1.3645    0.2224 O   0  0  0  0  0  1  0  0  0  0  0  0
  1  3  1  0  0  0  0
  2  1  1  0  0  0  0
  4  7  1  0  0  0  0
  4  1  1  0  0  0  0
  5  4  1  0  0  0  0
  6  4  1  0  0  0  0
  8 11  1  0  0  0  0
  8 10  1  0  0  0  0
  8  1  1  0  0  0  0
  9  8  1  0  0  0  0
 11 14  1  0  0  0  0
 11 13  1  0  0  0  0
 12 11  1  0  0  0  0
M  END
$$$$
Title Card Required
 OpenBabel07152211483D

 14 13  0  0  0  0  0  0  0  0999 V2000
   -1.0367    1.0614    0.4812 C   0  0  0  0  0  0  0  0  0  0  0  0
   -0.6718    2.0460    0.3822 H   0  0  0  0  0  0  0  0  0  0  0  0
   -0.9376    0.6787    1.4611 H   0  0  0  0  0  0  0  0  0  0  0  0
   -0.1479    0.2363   -0.5698 C   0  0  0  0  0  0  0  0  0  0  0  0
   -0.7705   -0.6867   -0.9126 H   0  0  0  0  0  0  0  0  0  0  0  0
    0.0328    0.8637   -1.3918 H   0  0  0  0  0  0  0  0  0  0  0  0
    1.7023   -0.1144    0.0083 Br  0  0  0  0  0  0  0  0  0  0  0  0
   -2.5345    1.1278   -0.2260 C   0  0  0  0  0  0  0  0  0  0  0  0
   -2.5292    1.5188   -1.3089 H   0  0  0  0  0  0  0  0  0  0  0  0
   -3.2026    1.8172    0.2662 H   0  0  0  0  0  0  0  0  0  0  0  0
   -3.0896   -0.3175    0.0460 C   0  0  0  0  0  0  0  0  0  0  0  0
   -3.8131   -0.6221   -0.7232 H   0  0  0  0  0  0  0  0  0  0  0  0
   -3.7170   -0.2156    1.1543 H   0  0  0  0  0  0  0  0  0  0  0  0
   -2.3073   -1.3571    0.2283 O   0  0  0  0  0  1  0  0  0  0  0  0
  1  3  1  0  0  0  0
  2  1  1  0  0  0  0
  4  7  1  0  0  0  0
  4  1  1  0  0  0  0
  5  4  1  0  0  0  0
  6  4  1  0  0  0  0
  8 11  1  0  0  0  0
  8 10  1  0  0  0  0
  8  1  1  0  0  0  0
  9  8  1  0  0  0  0
 11 14  1  0  0  0  0
 11 13  1  0  0  0  0
 12 11  1  0  0  0  0
M  END
$$$$
Title Card Required
 OpenBabel07152211483D

 14 13  0  0  0  0  0  0  0  0999 V2000
   -1.0580    1.0708    0.4867 C   0  0  0  0  0  0  0  0  0  0  0  0
   -0.6425    2.0020    0.3154 H   0  0  0  0  0  0  0  0  0  0  0  0
   -0.9288    0.6339    1.4336 H   0  0  0  0  0  0  0  0  0  0  0  0
   -0.1486    0.2252   -0.5698 C   0  0  0  0  0  0  0  0  0  0  0  0
   -0.7693   -0.6511   -0.8514 H   0  0  0  0  0  0  0  0  0  0  0  0
    0.0291    0.8989   -1.4123 H   0  0  0  0  0  0  0  0  0  0  0  0
    1.7044   -0.1139    0.0080 Br  0  0  0  0  0  0  0  0  0  0  0  0
   -2.5160    1.1119   -0.2215 C   0  0  0  0  0  0  0  0  0  0  0  0
   -2.6132    1.5874   -1.2958 H   0  0  0  0  0  0  0  0  0  0  0  0
   -3.2535    1.7912    0.2484 H   0  0  0  0  0  0  0  0  0  0  0  0
   -3.0835   -0.3236    0.0436 C   0  0  0  0  0  0  0  0  0  0  0  0
   -3.8094   -0.5406   -0.7836 H   0  0  0  0  0  0  0  0  0  0  0  0
   -3.6421   -0.2098    1.1227 H   0  0  0  0  0  0  0  0  0  0  0  0
   -2.3183   -1.3488    0.2335 O   0  0  0  0  0  1  0  0  0  0  0  0
  1  3  1  0  0  0  0
  2  1  1  0  0  0  0
  4  7  1  0  0  0  0
  4  1  1  0  0  0  0
  5  4  1  0  0  0  0
  6  4  1  0  0  0  0
  8 11  1  0  0  0  0
  8 10  1  0  0  0  0
  8  1  1  0  0  0  0
  9  8  1  0  0  0  0
 11 14  1  0  0  0  0
 11 13  1  0  0  0  0
 12 11  1  0  0  0  0
M  END
$$$$
Title Card Required
 OpenBabel07152211483D

 14 13  0  0  0  0  0  0  0  0999 V2000
   -1.0807    1.0780    0.4822 C   0  0  0  0  0  0  0  0  0  0  0  0
   -0.5879    2.0153    0.2669 H   0  0  0  0  0  0  0  0  0  0  0  0
   -0.9322    0.5769    1.4403 H   0  0  0  0  0  0  0  0  0  0  0  0
   -0.1527    0.2166   -0.5684 C   0  0  0  0  0  0  0  0  0  0  0  0
   -0.7514   -0.6258   -0.7770 H   0  0  0  0  0  0  0  0  0  0  0  0
    0.0228    0.9337   -1.4416 H   0  0  0  0  0  0  0  0  0  0  0  0
    1.7064   -0.1135    0.0077 Br  0  0  0  0  0  0  0  0  0  0  0  0
   -2.4958    1.0958   -0.2159 C   0  0  0  0  0  0  0  0  0  0  0  0
   -2.6704    1.6260   -1.2527 H   0  0  0  0  0  0  0  0  0  0  0  0
   -3.2936    1.7675    0.2444 H   0  0  0  0  0  0  0  0  0  0  0  0
   -3.0806   -0.3319    0.0444 C   0  0  0  0  0  0  0  0  0  0  0  0
   -3.8298   -0.4435   -0.8454 H   0  0  0  0  0  0  0  0  0  0  0  0
   -3.5744   -0.1846    1.0524 H   0  0  0  0  0  0  0  0  0  0  0  0
   -2.3263   -1.3414    0.2378 O   0  0  0  0  0  1  0  0  0  0  0  0
  1  3  1  0  0  0  0
  2  1  1  0  0  0  0
  4  7  1  0  0  0  0
  4  1  1  0  0  0  0
  5  4  1  0  0  0  0
  6  4  1  0  0  0  0
  8 11  1  0  0  0  0
  8 10  1  0  0  0  0
  8  1  1  0  0  0  0
  9  8  1  0  0  0  0
 11 14  1  0  0  0  0
 11 13  1  0  0  0  0
 12 11  1  0  0  0  0
M  END
$$$$
Title Card Required
 OpenBabel07152211483D

 14 13  0  0  0  0  0  0  0  0999 V2000
   -1.1027    1.0846    0.4680 C   0  0  0  0  0  0  0  0  0  0  0  0
   -0.5247    2.0589    0.2520 H   0  0  0  0  0  0  0  0  0  0  0  0
   -0.9546    0.5260    1.4553 H   0  0  0  0  0  0  0  0  0  0  0  0
   -0.1584    0.2160   -0.5665 C   0  0  0  0  0  0  0  0  0  0  0  0
   -0.7377   -0.6543   -0.7023 H   0  0  0  0  0  0  0  0  0  0  0  0
    0.0057    0.9393   -1.4580 H   0  0  0  0  0  0  0  0  0  0  0  0
    1.7084   -0.1131    0.0076 Br  0  0  0  0  0  0  0  0  0  0  0  0
   -2.4752    1.0811   -0.2082 C   0  0  0  0  0  0  0  0  0  0  0  0
   -2.6875    1.6281   -1.1797 H   0  0  0  0  0  0  0  0  0  0  0  0
   -3.3063    1.7340    0.2555 H   0  0  0  0  0  0  0  0  0  0  0  0
   -3.0817   -0.3408    0.0446 C   0  0  0  0  0  0  0  0  0  0  0  0
   -3.8639   -0.3347   -0.8916 H   0  0  0  0  0  0  0  0  0  0  0  0
   -3.5399   -0.1355    0.9709 H   0  0  0  0  0  0  0  0  0  0  0  0
   -2.3307   -1.3364    0.2410 O   0  0  0  0  0  1  0  0  0  0  0  0
  1  3  1  0  0  0  0
  2  1  1  0  0  0  0
  4  7  1  0  0  0  0
  4  1  1  0  0  0  0
  5  4  1  0  0  0  0
  6  4  1  0  0  0  0
  8 11  1  0  0  0  0
  8 10  1  0  0  0  0
  8  1  1  0  0  0  0
  9  8  1  0  0  0  0
 11 14  1  0  0  0  0
 11 13  1  0  0  0  0
 12 11  1  0  0  0  0
M  END
$$$$
Title Card Required
 OpenBabel07152211483D

 14 13  0  0  0  0  0  0  0  0999 V2000
   -1.1171    1.0919    0.4466 C   0  0  0  0  0  0  0  0  0  0  0  0
   -0.4897    2.0879    0.2898 H   0  0  0  0  0  0  0  0  0  0  0  0
   -1.0017    0.5108    1.4427 H   0  0  0  0  0  0  0  0  0  0  0  0
   -0.1658    0.2255   -0.5646 C   0  0  0  0  0  0  0  0  0  0  0  0
   -0.7318   -0.7438   -0.6384 H   0  0  0  0  0  0  0  0  0  0  0  0
   -0.0250    0.8965   -1.4492 H   0  0  0  0  0  0  0  0  0  0  0  0
    1.7104   -0.1126    0.0075 Br  0  0  0  0  0  0  0  0  0  0  0  0
   -2.4577    1.0696   -0.1976 C   0  0  0  0  0  0  0  0  0  0  0  0
   -2.6521    1.5976   -1.1097 H   0  0  0  0  0  0  0  0  0  0  0  0
   -3.2781    1.6881    0.2868 H   0  0  0  0  0  0  0  0  0  0  0  0
   -3.0865   -0.3472    0.0388 C   0  0  0  0  0  0  0  0  0  0  0  0
   -3.8968   -0.2366   -0.9002 H   0  0  0  0  0  0  0  0  0  0  0  0
   -3.5802   -0.0632    0.9365 H   0  0  0  0  0  0  0  0  0  0  0  0
   -2.3307   -1.3360    0.2427 O   0  0  0  0  0  1  0  0  0  0  0  0
  1  3  1  0  0  0  0
  2  1  1  0  0  0  0
  4  7  1  0  0  0  0
  4  1  1  0  0  0  0
  5  4  1  0  0  0  0
  6  4  1  0  0  0  0
  8 11  1  0  0  0  0
  8 10  1  0  0  0  0
  8  1  1  0  0  0  0
  9  8  1  0  0  0  0
 11 14  1  0  0  0  0
 11 13  1  0  0  0  0
 12 11  1  0  0  0  0
M  END
$$$$
Title Card Required
 OpenBabel07152211483D

 14 13  0  0  0  0  0  0  0  0999 V2000
   -1.1195    1.0988    0.4253 C   0  0  0  0  0  0  0  0  0  0  0  0
   -0.5000    2.0821    0.3628 H   0  0  0  0  0  0  0  0  0  0  0  0
   -1.0585    0.5350    1.3999 H   0  0  0  0  0  0  0  0  0  0  0  0
   -0.1755    0.2363   -0.5620 C   0  0  0  0  0  0  0  0  0  0  0  0
   -0.7133   -0.8192   -0.5915 H   0  0  0  0  0  0  0  0  0  0  0  0
   -0.0573    0.8329   -1.4376 H   0  0  0  0  0  0  0  0  0  0  0  0
    1.7119   -0.1122    0.0075 Br  0  0  0  0  0  0  0  0  0  0  0  0
   -2.4461    1.0620   -0.1846 C   0  0  0  0  0  0  0  0  0  0  0  0
   -2.5860    1.5639   -1.0970 H   0  0  0  0  0  0  0  0  0  0  0  0
   -3.2251    1.6473    0.3321 H   0  0  0  0  0  0  0  0  0  0  0  0
   -3.0938   -0.3487    0.0289 C   0  0  0  0  0  0  0  0  0  0  0  0
   -3.9149   -0.1790   -0.8739 H   0  0  0  0  0  0  0  0  0  0  0  0
   -3.6726    0.0013    0.9481 H   0  0  0  0  0  0  0  0  0  0  0  0
   -2.3277   -1.3399    0.2428 O   0  0  0  0  0  1  0  0  0  0  0  0
  1  3  1  0  0  0  0
  2  1  1  0  0  0  0
  4  7  1  0  0  0  0
  4  1  1  0  0  0  0
  5  4  1  0  0  0  0
  6  4  1  0  0  0  0
  8 11  1  0  0  0  0
  8 10  1  0  0  0  0
  8  1  1  0  0  0  0
  9  8  1  0  0  0  0
 11 14  1  0  0  0  0
 11 13  1  0  0  0  0
 12 11  1  0  0  0  0
M  END
$$$$
Title Card Required
 OpenBabel07152211483D

 14 13  0  0  0  0  0  0  0  0999 V2000
   -1.1131    1.1050    0.4052 C   0  0  0  0  0  0  0  0  0  0  0  0
   -0.5400    2.0580    0.4500 H   0  0  0  0  0  0  0  0  0  0  0  0
   -1.1153    0.5765    1.3498 H   0  0  0  0  0  0  0  0  0  0  0  0
   -0.1879    0.2432   -0.5566 C   0  0  0  0  0  0  0  0  0  0  0  0
   -0.6793   -0.8502   -0.5561 H   0  0  0  0  0  0  0  0  0  0  0  0
   -0.0850    0.7761   -1.4524 H   0  0  0  0  0  0  0  0  0  0  0  0
    1.7132   -0.1118    0.0075 Br  0  0  0  0  0  0  0  0  0  0  0  0
   -2.4384    1.0562   -0.1702 C   0  0  0  0  0  0  0  0  0  0  0  0
   -2.5083    1.5363   -1.1371 H   0  0  0  0  0  0  0  0  0  0  0  0
   -3.1660    1.6228    0.3874 H   0  0  0  0  0  0  0  0  0  0  0  0
   -3.1037   -0.3457    0.0193 C   0  0  0  0  0  0  0  0  0  0  0  0
   -3.9196   -0.1581   -0.8297 H   0  0  0  0  0  0  0  0  0  0  0  0
   -3.7730    0.0399    0.9620 H   0  0  0  0  0  0  0  0  0  0  0  0
   -2.3241   -1.3458    0.2418 O   0  0  0  0  0  1  0  0  0  0  0  0
  1  2  1  0  0  0  0
  1  3  1  0  0  0  0
  4  5  1  0  0  0  0
  4  7  1  0  0  0  0
  4  1  1  0  0  0  0
  6  4  1  0  0  0  0
  8 11  1  0  0  0  0
  8 10  1  0  0  0  0
  8  1  1  0  0  0  0
  9  8  1  0  0  0  0
 11 14  1  0  0  0  0
 11 13  1  0  0  0  0
 12 11  1  0  0  0  0
M  END
$$$$
Title Card Required
 OpenBabel07152211483D

 14 13  0  0  0  0  0  0  0  0999 V2000
   -1.1004    1.1097    0.3853 C   0  0  0  0  0  0  0  0  0  0  0  0
   -0.5924    2.0379    0.5409 H   0  0  0  0  0  0  0  0  0  0  0  0
   -1.1678    0.6157    1.3152 H   0  0  0  0  0  0  0  0  0  0  0  0
   -0.2022    0.2455   -0.5479 C   0  0  0  0  0  0  0  0  0  0  0  0
   -0.6348   -0.8363   -0.5292 H   0  0  0  0  0  0  0  0  0  0  0  0
   -0.1074    0.7313   -1.4996 H   0  0  0  0  0  0  0  0  0  0  0  0
    1.7143   -0.1113    0.0076 Br  0  0  0  0  0  0  0  0  0  0  0  0
   -2.4333    1.0521   -0.1570 C   0  0  0  0  0  0  0  0  0  0  0  0
   -2.4273    1.5063   -1.1984 H   0  0  0  0  0  0  0  0  0  0  0  0
   -3.1103    1.6211    0.4496 H   0  0  0  0  0  0  0  0  0  0  0  0
   -3.1156   -0.3395    0.0119 C   0  0  0  0  0  0  0  0  0  0  0  0
   -3.9160   -0.1683   -0.7805 H   0  0  0  0  0  0  0  0  0  0  0  0
   -3.8631    0.0496    0.9630 H   0  0  0  0  0  0  0  0  0  0  0  0
   -2.3211   -1.3525    0.2399 O   0  0  0  0  0  1  0  0  0  0  0  0
  1  2  1  0  0  0  0
  1  3  1  0  0  0  0
  4  5  1  0  0  0  0
  4  7  1  0  0  0  0
  4  1  1  0  0  0  0
  6  4  1  0  0  0  0
  8 11  1  0  0  0  0
  8  1  1  0  0  0  0
  8 10  1  0  0  0  0
  9  8  1  0  0  0  0
 11 14  1  0  0  0  0
 11 13  1  0  0  0  0
 12 11  1  0  0  0  0
M  END
$$$$
Title Card Required
 OpenBabel07152211483D

 14 13  0  0  0  0  0  0  0  0999 V2000
   -1.0828    1.1120    0.3649 C   0  0  0  0  0  0  0  0  0  0  0  0
   -0.6448    2.0416    0.6326 H   0  0  0  0  0  0  0  0  0  0  0  0
   -1.2150    0.6396    1.3090 H   0  0  0  0  0  0  0  0  0  0  0  0
   -0.2177    0.2450   -0.5370 C   0  0  0  0  0  0  0  0  0  0  0  0
   -0.5866   -0.7880   -0.5088 H   0  0  0  0  0  0  0  0  0  0  0  0
   -0.1275    0.6884   -1.5625 H   0  0  0  0  0  0  0  0  0  0  0  0
    1.7153   -0.1106    0.0077 Br  0  0  0  0  0  0  0  0  0  0  0  0
   -2.4303    1.0500   -0.1468 C   0  0  0  0  0  0  0  0  0  0  0  0
   -2.3497    1.4657   -1.2523 H   0  0  0  0  0  0  0  0  0  0  0  0
   -3.0590    1.6443    0.5145 H   0  0  0  0  0  0  0  0  0  0  0  0
   -3.1286   -0.3312    0.0077 C   0  0  0  0  0  0  0  0  0  0  0  0
   -3.9127   -0.2059   -0.7400 H   0  0  0  0  0  0  0  0  0  0  0  0
   -3.9369    0.0330    0.9489 H   0  0  0  0  0  0  0  0  0  0  0  0
   -2.3194   -1.3593    0.2371 O   0  0  0  0  0  1  0  0  0  0  0  0
  1  2  1  0  0  0  0
  1  3  1  0  0  0  0
  4  5  1  0  0  0  0
  4  7  1  0  0  0  0
  4  1  1  0  0  0  0
  6  4  1  0  0  0  0
  8 11  1  0  0  0  0
  8  1  1  0  0  0  0
  8 10  1  0  0  0  0
  9  8  1  0  0  0  0
 11 14  1  0  0  0  0
 11 13  1  0  0  0  0
 12 11  1  0  0  0  0
M  END
$$$$
Title Card Required
 OpenBabel07152211483D

 14 13  0  0  0  0  0  0  0  0999 V2000
   -1.0602    1.1115    0.3447 C   0  0  0  0  0  0  0  0  0  0  0  0
   -0.6929    2.0758    0.7219 H   0  0  0  0  0  0  0  0  0  0  0  0
   -1.2537    0.6437    1.3278 H   0  0  0  0  0  0  0  0  0  0  0  0
   -0.2327    0.2446   -0.5259 C   0  0  0  0  0  0  0  0  0  0  0  0
   -0.5474   -0.7342   -0.4921 H   0  0  0  0  0  0  0  0  0  0  0  0
   -0.1491    0.6353   -1.6174 H   0  0  0  0  0  0  0  0  0  0  0  0
    1.7162   -0.1098    0.0078 Br  0  0  0  0  0  0  0  0  0  0  0  0
   -2.4295    1.0508   -0.1406 C   0  0  0  0  0  0  0  0  0  0  0  0
   -2.2837    1.4103   -1.2796 H   0  0  0  0  0  0  0  0  0  0  0  0
   -3.0071    1.6918    0.5721 H   0  0  0  0  0  0  0  0  0  0  0  0
   -3.1417   -0.3217    0.0082 C   0  0  0  0  0  0  0  0  0  0  0  0
   -3.9220   -0.2702   -0.7261 H   0  0  0  0  0  0  0  0  0  0  0  0
   -3.9902   -0.0089    0.9189 H   0  0  0  0  0  0  0  0  0  0  0  0
   -2.3198   -1.3657    0.2330 O   0  0  0  0  0  1  0  0  0  0  0  0
  1  2  1  0  0  0  0
  1  3  1  0  0  0  0
  4  5  1  0  0  0  0
  4  7  1  0  0  0  0
  4  1  1  0  0  0  0
  6  4  1  0  0  0  0
  8 11  1  0  0  0  0
  8  1  1  0  0  0  0
  8 10  1  0  0  0  0
  9  8  1  0  0  0  0
 11 14  1  0  0  0  0
 11 13  1  0  0  0  0
 12 11  1  0  0  0  0
M  END
$$$$
Title Card Required
 OpenBabel07152211483D

 14 13  0  0  0  0  0  0  0  0999 V2000
   -1.0333    1.1088    0.3293 C   0  0  0  0  0  0  0  0  0  0  0  0
   -0.7383    2.1235    0.7929 H   0  0  0  0  0  0  0  0  0  0  0  0
   -1.2728    0.6298    1.3506 H   0  0  0  0  0  0  0  0  0  0  0  0
   -0.2441    0.2489   -0.5174 C   0  0  0  0  0  0  0  0  0  0  0  0
   -0.5395   -0.7296   -0.4742 H   0  0  0  0  0  0  0  0  0  0  0  0
   -0.1752    0.5648   -1.6386 H   0  0  0  0  0  0  0  0  0  0  0  0
    1.7172   -0.1086    0.0079 Br  0  0  0  0  0  0  0  0  0  0  0  0
   -2.4313    1.0556   -0.1390 C   0  0  0  0  0  0  0  0  0  0  0  0
   -2.2433    1.3417   -1.2642 H   0  0  0  0  0  0  0  0  0  0  0  0
   -2.9484    1.7586    0.6030 H   0  0  0  0  0  0  0  0  0  0  0  0
   -3.1544   -0.3126    0.0152 C   0  0  0  0  0  0  0  0  0  0  0  0
   -3.9496   -0.3608   -0.7560 H   0  0  0  0  0  0  0  0  0  0  0  0
   -4.0128   -0.0752    0.8714 H   0  0  0  0  0  0  0  0  0  0  0  0
   -2.3230   -1.3709    0.2274 O   0  0  0  0  0  1  0  0  0  0  0  0
  1  2  1  0  0  0  0
  1  3  1  0  0  0  0
  4  5  1  0  0  0  0
  4  7  1  0  0  0  0
  4  1  1  0  0  0  0
  6  4  1  0  0  0  0
  8 11  1  0  0  0  0
  8  1  1  0  0  0  0
  8 10  1  0  0  0  0
  9  8  1  0  0  0  0
 11 14  1  0  0  0  0
 11 13  1  0  0  0  0
 12 11  1  0  0  0  0
M  END
$$$$
Title Card Required
 OpenBabel07152211483D

 14 13  0  0  0  0  0  0  0  0999 V2000
   -1.0074    1.1067    0.3261 C   0  0  0  0  0  0  0  0  0  0  0  0
   -0.7751    2.1498    0.8164 H   0  0  0  0  0  0  0  0  0  0  0  0
   -1.2576    0.6060    1.3499 H   0  0  0  0  0  0  0  0  0  0  0  0
   -0.2480    0.2568   -0.5148 C   0  0  0  0  0  0  0  0  0  0  0  0
   -0.5729   -0.7879   -0.4504 H   0  0  0  0  0  0  0  0  0  0  0  0
   -0.2024    0.4893   -1.6142 H   0  0  0  0  0  0  0  0  0  0  0  0
    1.7180   -0.1073    0.0080 Br  0  0  0  0  0  0  0  0  0  0  0  0
   -2.4355    1.0640   -0.1413 C   0  0  0  0  0  0  0  0  0  0  0  0
   -2.2444    1.2792   -1.2124 H   0  0  0  0  0  0  0  0  0  0  0  0
   -2.8887    1.8266    0.5860 H   0  0  0  0  0  0  0  0  0  0  0  0
   -3.1665   -0.3069    0.0269 C   0  0  0  0  0  0  0  0  0  0  0  0
   -3.9729   -0.4581   -0.8167 H   0  0  0  0  0  0  0  0  0  0  0  0
   -3.9977   -0.1515    0.8169 H   0  0  0  0  0  0  0  0  0  0  0  0
   -2.3293   -1.3737    0.2209 O   0  0  0  0  0  1  0  0  0  0  0  0
  1  2  1  0  0  0  0
  1  3  1  0  0  0  0
  4  5  1  0  0  0  0
  4  7  1  0  0  0  0
  4  1  1  0  0  0  0
  6  4  1  0  0  0  0
  8 11  1  0  0  0  0
  8  1  1  0  0  0  0
  8 10  1  0  0  0  0
  9  8  1  0  0  0  0
 11 14  1  0  0  0  0
 11 13  1  0  0  0  0
 12 11  1  0  0  0  0
M  END
$$$$
Title Card Required
 OpenBabel07152211483D

 14 13  0  0  0  0  0  0  0  0999 V2000
   -0.9861    1.1066    0.3369 C   0  0  0  0  0  0  0  0  0  0  0  0
   -0.7964    2.1420    0.7865 H   0  0  0  0  0  0  0  0  0  0  0  0
   -1.2071    0.5789    1.3189 H   0  0  0  0  0  0  0  0  0  0  0  0
   -0.2451    0.2607   -0.5171 C   0  0  0  0  0  0  0  0  0  0  0  0
   -0.6296   -0.8440   -0.4182 H   0  0  0  0  0  0  0  0  0  0  0  0
   -0.2260    0.4247   -1.5704 H   0  0  0  0  0  0  0  0  0  0  0  0
    1.7187   -0.1058    0.0081 Br  0  0  0  0  0  0  0  0  0  0  0  0
   -2.4412    1.0746   -0.1441 C   0  0  0  0  0  0  0  0  0  0  0  0
   -2.2831    1.2392   -1.1657 H   0  0  0  0  0  0  0  0  0  0  0  0
   -2.8363    1.8867    0.5215 H   0  0  0  0  0  0  0  0  0  0  0  0
   -3.1782   -0.3065    0.0389 C   0  0  0  0  0  0  0  0  0  0  0  0
   -3.9689   -0.5417   -0.8803 H   0  0  0  0  0  0  0  0  0  0  0  0
   -3.9632   -0.2242    0.7755 H   0  0  0  0  0  0  0  0  0  0  0  0
   -2.3378   -1.3738    0.2141 O   0  0  0  0  0  1  0  0  0  0  0  0
  1  2  1  0  0  0  0
  1  3  1  0  0  0  0
  4  5  1  0  0  0  0
  4  7  1  0  0  0  0
  4  1  1  0  0  0  0
  6  4  1  0  0  0  0
  8 11  1  0  0  0  0
  8  1  1  0  0  0  0
  8 10  1  0  0  0  0
  9  8  1  0  0  0  0
 11 14  1  0  0  0  0
 11 13  1  0  0  0  0
 12 11  1  0  0  0  0
M  END
$$$$
Title Card Required
 OpenBabel07152211483D

 14 13  0  0  0  0  0  0  0  0999 V2000
   -0.9707    1.1079    0.3588 C   0  0  0  0  0  0  0  0  0  0  0  0
   -0.7948    2.1145    0.7143 H   0  0  0  0  0  0  0  0  0  0  0  0
   -1.1291    0.5473    1.2737 H   0  0  0  0  0  0  0  0  0  0  0  0
   -0.2369    0.2558   -0.5205 C   0  0  0  0  0  0  0  0  0  0  0  0
   -0.6945   -0.8520   -0.3789 H   0  0  0  0  0  0  0  0  0  0  0  0
   -0.2422    0.3830   -1.5538 H   0  0  0  0  0  0  0  0  0  0  0  0
    1.7192   -0.1041    0.0081 Br  0  0  0  0  0  0  0  0  0  0  0  0
   -2.4474    1.0850   -0.1438 C   0  0  0  0  0  0  0  0  0  0  0  0
   -2.3467    1.2303   -1.1721 H   0  0  0  0  0  0  0  0  0  0  0  0
   -2.8028    1.9430    0.4240 H   0  0  0  0  0  0  0  0  0  0  0  0
   -3.1879   -0.3125    0.0467 C   0  0  0  0  0  0  0  0  0  0  0  0
   -3.9312   -0.5964   -0.9280 H   0  0  0  0  0  0  0  0  0  0  0  0
   -3.9441   -0.2841    0.7755 H   0  0  0  0  0  0  0  0  0  0  0  0
   -2.3479   -1.3717    0.2074 O   0  0  0  0  0  1  0  0  0  0  0  0
  1  2  1  0  0  0  0
  1  3  1  0  0  0  0
  4  5  1  0  0  0  0
  4  7  1  0  0  0  0
  4  1  1  0  0  0  0
  6  4  1  0  0  0  0
  8 11  1  0  0  0  0
  8  1  1  0  0  0  0
  8 10  1  0  0  0  0
  9  8  1  0  0  0  0
 11 14  1  0  0  0  0
 11 13  1  0  0  0  0
 12 11  1  0  0  0  0
M  END
$$$$
Title Card Required
 OpenBabel07152211483D

 14 13  0  0  0  0  0  0  0  0999 V2000
   -0.9622    1.1082    0.3829 C   0  0  0  0  0  0  0  0  0  0  0  0
   -0.7667    2.1044    0.6318 H   0  0  0  0  0  0  0  0  0  0  0  0
   -1.0461    0.5087    1.2495 H   0  0  0  0  0  0  0  0  0  0  0  0
   -0.2266    0.2430   -0.5221 C   0  0  0  0  0  0  0  0  0  0  0  0
   -0.7513   -0.8089   -0.3410 H   0  0  0  0  0  0  0  0  0  0  0  0
   -0.2493    0.3690   -1.5834 H   0  0  0  0  0  0  0  0  0  0  0  0
    1.7196   -0.1024    0.0080 Br  0  0  0  0  0  0  0  0  0  0  0  0
   -2.4523    1.0927   -0.1412 C   0  0  0  0  0  0  0  0  0  0  0  0
   -2.4156    1.2452   -1.2252 H   0  0  0  0  0  0  0  0  0  0  0  0
   -2.7992    2.0001    0.3260 H   0  0  0  0  0  0  0  0  0  0  0  0
   -3.1938   -0.3233    0.0484 C   0  0  0  0  0  0  0  0  0  0  0  0
   -3.8721   -0.6124   -0.9473 H   0  0  0  0  0  0  0  0  0  0  0  0
   -3.9582   -0.3228    0.8209 H   0  0  0  0  0  0  0  0  0  0  0  0
   -2.3576   -1.3681    0.2017 O   0  0  0  0  0  1  0  0  0  0  0  0
  1  2  1  0  0  0  0
  1  3  1  0  0  0  0
  4  5  1  0  0  0  0
  4  7  1  0  0  0  0
  4  1  1  0  0  0  0
  6  4  1  0  0  0  0
  8 11  1  0  0  0  0
  8 10  1  0  0  0  0
  8  1  1  0  0  0  0
  9  8  1  0  0  0  0
 11 14  1  0  0  0  0
 11 13  1  0  0  0  0
 12 11  1  0  0  0  0
M  END
$$$$
Title Card Required
 OpenBabel07152211483D

 14 13  0  0  0  0  0  0  0  0999 V2000
   -0.9588    1.1062    0.4040 C   0  0  0  0  0  0  0  0  0  0  0  0
   -0.7168    2.1274    0.5563 H   0  0  0  0  0  0  0  0  0  0  0  0
   -0.9686    0.4641    1.2591 H   0  0  0  0  0  0  0  0  0  0  0  0
   -0.2158    0.2260   -0.5231 C   0  0  0  0  0  0  0  0  0  0  0  0
   -0.7953   -0.7399   -0.3095 H   0  0  0  0  0  0  0  0  0  0  0  0
   -0.2491    0.3726   -1.6288 H   0  0  0  0  0  0  0  0  0  0  0  0
    1.7199   -0.1008    0.0079 Br  0  0  0  0  0  0  0  0  0  0  0  0
   -2.4557    1.0983   -0.1395 C   0  0  0  0  0  0  0  0  0  0  0  0
   -2.4792    1.2671   -1.2802 H   0  0  0  0  0  0  0  0  0  0  0  0
   -2.8209    2.0591    0.2405 H   0  0  0  0  0  0  0  0  0  0  0  0
   -3.1982   -0.3368    0.0464 C   0  0  0  0  0  0  0  0  0  0  0  0
   -3.8055   -0.5968   -0.9424 H   0  0  0  0  0  0  0  0  0  0  0  0
   -3.9859   -0.3434    0.8819 H   0  0  0  0  0  0  0  0  0  0  0  0
   -2.3661   -1.3640    0.1971 O   0  0  0  0  0  1  0  0  0  0  0  0
  1  2  1  0  0  0  0
  1  3  1  0  0  0  0
  4  5  1  0  0  0  0
  4  7  1  0  0  0  0
  4  1  1  0  0  0  0
  6  4  1  0  0  0  0
  8 11  1  0  0  0  0
  8 10  1  0  0  0  0
  8  1  1  0  0  0  0
  9  8  1  0  0  0  0
 11 14  1  0  0  0  0
 11 13  1  0  0  0  0
 12 11  1  0  0  0  0
M  END
$$$$
Title Card Required
 OpenBabel07152211483D

 14 13  0  0  0  0  0  0  0  0999 V2000
   -0.9587    1.1026    0.4229 C   0  0  0  0  0  0  0  0  0  0  0  0
   -0.6491    2.1695    0.4861 H   0  0  0  0  0  0  0  0  0  0  0  0
   -0.8941    0.4216    1.2958 H   0  0  0  0  0  0  0  0  0  0  0  0
   -0.2046    0.2065   -0.5254 C   0  0  0  0  0  0  0  0  0  0  0  0
   -0.8300   -0.6664   -0.2848 H   0  0  0  0  0  0  0  0  0  0  0  0
   -0.2427    0.3861   -1.6638 H   0  0  0  0  0  0  0  0  0  0  0  0
    1.7201   -0.0991    0.0078 Br  0  0  0  0  0  0  0  0  0  0  0  0
   -2.4582    1.1034   -0.1400 C   0  0  0  0  0  0  0  0  0  0  0  0
   -2.5346    1.2875   -1.3143 H   0  0  0  0  0  0  0  0  0  0  0  0
   -2.8612    2.1143    0.1622 H   0  0  0  0  0  0  0  0  0  0  0  0
   -3.2030   -0.3527    0.0432 C   0  0  0  0  0  0  0  0  0  0  0  0
   -3.7388   -0.5552   -0.9210 H   0  0  0  0  0  0  0  0  0  0  0  0
   -4.0110   -0.3492    0.9381 H   0  0  0  0  0  0  0  0  0  0  0  0
   -2.3738   -1.3594    0.1932 O   0  0  0  0  0  1  0  0  0  0  0  0
  1  2  1  0  0  0  0
  1  3  1  0  0  0  0
  4  5  1  0  0  0  0
  4  7  1  0  0  0  0
  4  1  1  0  0  0  0
  6  4  1  0  0  0  0
  8 11  1  0  0  0  0
  8 10  1  0  0  0  0
  8  1  1  0  0  0  0
  9  8  1  0  0  0  0
 11 14  1  0  0  0  0
 11 13  1  0  0  0  0
 12 11  1  0  0  0  0
M  END
$$$$
Title Card Required
 OpenBabel07152211483D

 14 13  0  0  0  0  0  0  0  0999 V2000
   -0.9608    1.0984    0.4416 C   0  0  0  0  0  0  0  0  0  0  0  0
   -0.5645    2.2044    0.4174 H   0  0  0  0  0  0  0  0  0  0  0  0
   -0.8187    0.3976    1.3503 H   0  0  0  0  0  0  0  0  0  0  0  0
   -0.1914    0.1843   -0.5308 C   0  0  0  0  0  0  0  0  0  0  0  0
   -0.8633   -0.6126   -0.2674 H   0  0  0  0  0  0  0  0  0  0  0  0
   -0.2280    0.4066   -1.6680 H   0  0  0  0  0  0  0  0  0  0  0  0
    1.7202   -0.0971    0.0075 Br  0  0  0  0  0  0  0  0  0  0  0  0
   -2.4609    1.1105   -0.1436 C   0  0  0  0  0  0  0  0  0  0  0  0
   -2.5765    1.3006   -1.3130 H   0  0  0  0  0  0  0  0  0  0  0  0
   -2.9195    2.1538    0.0847 H   0  0  0  0  0  0  0  0  0  0  0  0
   -3.2093   -0.3719    0.0413 C   0  0  0  0  0  0  0  0  0  0  0  0
   -3.6848   -0.4852   -0.8990 H   0  0  0  0  0  0  0  0  0  0  0  0
   -4.0243   -0.3380    0.9768 H   0  0  0  0  0  0  0  0  0  0  0  0
   -2.3809   -1.3541    0.1897 O   0  0  0  0  0  1  0  0  0  0  0  0
  1  3  1  0  0  0  0
  2  1  1  0  0  0  0
  4  5  1  0  0  0  0
  4  7  1  0  0  0  0
  4  1  1  0  0  0  0
  6  4  1  0  0  0  0
  8 11  1  0  0  0  0
  8 10  1  0  0  0  0
  8  1  1  0  0  0  0
  9  8  1  0  0  0  0
 11 14  1  0  0  0  0
 11 13  1  0  0  0  0
 12 11  1  0  0  0  0
M  END
$$$$
Title Card Required
 OpenBabel07152211483D

 14 13  0  0  0  0  0  0  0  0999 V2000
   -0.9631    1.0955    0.4588 C   0  0  0  0  0  0  0  0  0  0  0  0
   -0.4790    2.1878    0.3642 H   0  0  0  0  0  0  0  0  0  0  0  0
   -0.7551    0.4276    1.4019 H   0  0  0  0  0  0  0  0  0  0  0  0
   -0.1759    0.1620   -0.5402 C   0  0  0  0  0  0  0  0  0  0  0  0
   -0.8980   -0.6241   -0.2651 H   0  0  0  0  0  0  0  0  0  0  0  0
   -0.2025    0.4305   -1.6190 H   0  0  0  0  0  0  0  0  0  0  0  0
    1.7200   -0.0947    0.0071 Br  0  0  0  0  0  0  0  0  0  0  0  0
   -2.4646    1.1220   -0.1505 C   0  0  0  0  0  0  0  0  0  0  0  0
   -2.5840    1.2951   -1.2611 H   0  0  0  0  0  0  0  0  0  0  0  0
   -2.9880    2.1500    0.0191 H   0  0  0  0  0  0  0  0  0  0  0  0
   -3.2169   -0.3925    0.0457 C   0  0  0  0  0  0  0  0  0  0  0  0
   -3.6834   -0.3885   -0.9166 H   0  0  0  0  0  0  0  0  0  0  0  0
   -4.0123   -0.3057    0.9715 H   0  0  0  0  0  0  0  0  0  0  0  0
   -2.3866   -1.3493    0.1869 O   0  0  0  0  0  1  0  0  0  0  0  0
  1  3  1  0  0  0  0
  2  1  1  0  0  0  0
  4  5  1  0  0  0  0
  4  7  1  0  0  0  0
  4  1  1  0  0  0  0
  6  4  1  0  0  0  0
  8 10  1  0  0  0  0
  8 11  1  0  0  0  0
  8  1  1  0  0  0  0
  9  8  1  0  0  0  0
 11 14  1  0  0  0  0
 11 13  1  0  0  0  0
 12 11  1  0  0  0  0
M  END
$$$$
Title Card Required
 OpenBabel07152211483D

 14 13  0  0  0  0  0  0  0  0999 V2000
   -0.9626    1.0954    0.4687 C   0  0  0  0  0  0  0  0  0  0  0  0
   -0.4298    2.1132    0.3493 H   0  0  0  0  0  0  0  0  0  0  0  0
   -0.7295    0.5114    1.4227 H   0  0  0  0  0  0  0  0  0  0  0  0
   -0.1644    0.1449   -0.5474 C   0  0  0  0  0  0  0  0  0  0  0  0
   -0.9107   -0.6936   -0.2857 H   0  0  0  0  0  0  0  0  0  0  0  0
   -0.1737    0.4548   -1.5574 H   0  0  0  0  0  0  0  0  0  0  0  0
    1.7197   -0.0926    0.0067 Br  0  0  0  0  0  0  0  0  0  0  0  0
   -2.4682    1.1345   -0.1559 C   0  0  0  0  0  0  0  0  0  0  0  0
   -2.5474    1.2709   -1.2063 H   0  0  0  0  0  0  0  0  0  0  0  0
   -3.0407    2.1029   -0.0063 H   0  0  0  0  0  0  0  0  0  0  0  0
   -3.2246   -0.4058    0.0548 C   0  0  0  0  0  0  0  0  0  0  0  0
   -3.7379   -0.3031   -0.9663 H   0  0  0  0  0  0  0  0  0  0  0  0
   -3.9802   -0.2677    0.9216 H   0  0  0  0  0  0  0  0  0  0  0  0
   -2.3888   -1.3473    0.1855 O   0  0  0  0  0  1  0  0  0  0  0  0
  1  3  1  0  0  0  0
  2  1  1  0  0  0  0
  4  5  1  0  0  0  0
  4  7  1  0  0  0  0
  4  1  1  0  0  0  0
  6  4  1  0  0  0  0
  8 10  1  0  0  0  0
  8 11  1  0  0  0  0
  8  1  1  0  0  0  0
  9  8  1  0  0  0  0
 11 14  1  0  0  0  0
 11 13  1  0  0  0  0
 12 11  1  0  0  0  0
M  END
$$$$
Title Card Required
 OpenBabel07152211483D

 14 13  0  0  0  0  0  0  0  0999 V2000
   -0.9601    1.0964    0.4719 C   0  0  0  0  0  0  0  0  0  0  0  0
   -0.4060    2.0189    0.3611 H   0  0  0  0  0  0  0  0  0  0  0  0
   -0.7327    0.6202    1.4278 H   0  0  0  0  0  0  0  0  0  0  0  0
   -0.1581    0.1291   -0.5483 C   0  0  0  0  0  0  0  0  0  0  0  0
   -0.8923   -0.7786   -0.3272 H   0  0  0  0  0  0  0  0  0  0  0  0
   -0.1437    0.4902   -1.5299 H   0  0  0  0  0  0  0  0  0  0  0  0
    1.7194   -0.0907    0.0063 Br  0  0  0  0  0  0  0  0  0  0  0  0
   -2.4706    1.1455   -0.1560 C   0  0  0  0  0  0  0  0  0  0  0  0
   -2.4795    1.2377   -1.1975 H   0  0  0  0  0  0  0  0  0  0  0  0
   -3.0842    2.0413    0.0038 H   0  0  0  0  0  0  0  0  0  0  0  0
   -3.2329   -0.4115    0.0626 C   0  0  0  0  0  0  0  0  0  0  0  0
   -3.8108   -0.2395   -1.0013 H   0  0  0  0  0  0  0  0  0  0  0  0
   -3.9480   -0.2320    0.8591 H   0  0  0  0  0  0  0  0  0  0  0  0
   -2.3889   -1.3478    0.1849 O   0  0  0  0  0  1  0  0  0  0  0  0
  1  3  1  0  0  0  0
  2  1  1  0  0  0  0
  4  5  1  0  0  0  0
  4  7  1  0  0  0  0
  4  1  1  0  0  0  0
  6  4  1  0  0  0  0
  8 10  1  0  0  0  0
  8 11  1  0  0  0  0
  8  1  1  0  0  0  0
  9  8  1  0  0  0  0
 11 14  1  0  0  0  0
 11 13  1  0  0  0  0
 12 11  1  0  0  0  0
M  END
$$$$
Title Card Required
 OpenBabel07152211483D

 14 13  0  0  0  0  0  0  0  0999 V2000
   -0.9577    1.0960    0.4683 C   0  0  0  0  0  0  0  0  0  0  0  0
   -0.3839    1.9500    0.3853 H   0  0  0  0  0  0  0  0  0  0  0  0
   -0.7555    0.7306    1.4436 H   0  0  0  0  0  0  0  0  0  0  0  0
   -0.1570    0.1120   -0.5426 C   0  0  0  0  0  0  0  0  0  0  0  0
   -0.8423   -0.8554   -0.3872 H   0  0  0  0  0  0  0  0  0  0  0  0
   -0.1127    0.5390   -1.5403 H   0  0  0  0  0  0  0  0  0  0  0  0
    1.7189   -0.0888    0.0059 Br  0  0  0  0  0  0  0  0  0  0  0  0
   -2.4708    1.1533   -0.1511 C   0  0  0  0  0  0  0  0  0  0  0  0
   -2.3866    1.2003   -1.2375 H   0  0  0  0  0  0  0  0  0  0  0  0
   -3.1296    1.9856    0.0434 H   0  0  0  0  0  0  0  0  0  0  0  0
   -3.2404   -0.4099    0.0650 C   0  0  0  0  0  0  0  0  0  0  0  0
   -3.8844   -0.2009   -1.0039 H   0  0  0  0  0  0  0  0  0  0  0  0
   -3.9389   -0.1978    0.8169 H   0  0  0  0  0  0  0  0  0  0  0  0
   -2.3877   -1.3506    0.1847 O   0  0  0  0  0  1  0  0  0  0  0  0
  1  3  1  0  0  0  0
  2  1  1  0  0  0  0
  4  5  1  0  0  0  0
  4  7  1  0  0  0  0
  4  1  1  0  0  0  0
  6  4  1  0  0  0  0
  8 10  1  0  0  0  0
  8 11  1  0  0  0  0
  8  1  1  0  0  0  0
  9  8  1  0  0  0  0
 11 14  1  0  0  0  0
 11 13  1  0  0  0  0
 12 11  1  0  0  0  0
M  END
$$$$
Title Card Required
 OpenBabel07152211483D

 14 13  0  0  0  0  0  0  0  0999 V2000
   -0.9576    1.0922    0.4581 C   0  0  0  0  0  0  0  0  0  0  0  0
   -0.3447    1.9423    0.4085 H   0  0  0  0  0  0  0  0  0  0  0  0
   -0.7922    0.8236    1.4872 H   0  0  0  0  0  0  0  0  0  0  0  0
   -0.1606    0.0942   -0.5332 C   0  0  0  0  0  0  0  0  0  0  0  0
   -0.7647   -0.9075   -0.4601 H   0  0  0  0  0  0  0  0  0  0  0  0
   -0.0840    0.5875   -1.5582 H   0  0  0  0  0  0  0  0  0  0  0  0
    1.7186   -0.0870    0.0055 Br  0  0  0  0  0  0  0  0  0  0  0  0
   -2.4677    1.1567   -0.1447 C   0  0  0  0  0  0  0  0  0  0  0  0
   -2.2829    1.1647   -1.2859 H   0  0  0  0  0  0  0  0  0  0  0  0
   -3.1789    1.9465    0.1033 H   0  0  0  0  0  0  0  0  0  0  0  0
   -3.2451   -0.4021    0.0605 C   0  0  0  0  0  0  0  0  0  0  0  0
   -3.9470   -0.1896   -0.9721 H   0  0  0  0  0  0  0  0  0  0  0  0
   -3.9663   -0.1640    0.8176 H   0  0  0  0  0  0  0  0  0  0  0  0
   -2.3866   -1.3550    0.1847 O   0  0  0  0  0  1  0  0  0  0  0  0
  1  3  1  0  0  0  0
  2  1  1  0  0  0  0
  4  5  1  0  0  0  0
  4  7  1  0  0  0  0
  4  1  1  0  0  0  0
  6  4  1  0  0  0  0
  8 11  1  0  0  0  0
  8 10  1  0  0  0  0
  8  1  1  0  0  0  0
  9  8  1  0  0  0  0
 11 14  1  0  0  0  0
 11 13  1  0  0  0  0
 12 11  1  0  0  0  0
M  END
$$$$
Title Card Required
 OpenBabel07152211483D

 14 13  0  0  0  0  0  0  0  0999 V2000
   -0.9592    1.0858    0.4440 C   0  0  0  0  0  0  0  0  0  0  0  0
   -0.2980    1.9819    0.4228 H   0  0  0  0  0  0  0  0  0  0  0  0
   -0.8399    0.8933    1.5444 H   0  0  0  0  0  0  0  0  0  0  0  0
   -0.1675    0.0776   -0.5232 C   0  0  0  0  0  0  0  0  0  0  0  0
   -0.6710   -0.9311   -0.5373 H   0  0  0  0  0  0  0  0  0  0  0  0
   -0.0625    0.6194   -1.5548 H   0  0  0  0  0  0  0  0  0  0  0  0
    1.7182   -0.0853    0.0051 Br  0  0  0  0  0  0  0  0  0  0  0  0
   -2.4614    1.1556   -0.1402 C   0  0  0  0  0  0  0  0  0  0  0  0
   -2.1891    1.1387   -1.3053 H   0  0  0  0  0  0  0  0  0  0  0  0
   -3.2212    1.9198    0.1693 H   0  0  0  0  0  0  0  0  0  0  0  0
   -3.2471   -0.3893    0.0510 C   0  0  0  0  0  0  0  0  0  0  0  0
   -3.9905   -0.2038   -0.9136 H   0  0  0  0  0  0  0  0  0  0  0  0
   -4.0135   -0.1357    0.8506 H   0  0  0  0  0  0  0  0  0  0  0  0
   -2.3866   -1.3600    0.1845 O   0  0  0  0  0  1  0  0  0  0  0  0
  1  3  1  0  0  0  0
  2  1  1  0  0  0  0
  4  7  1  0  0  0  0
  4  1  1  0  0  0  0
  5  4  1  0  0  0  0
  6  4  1  0  0  0  0
  8 11  1  0  0  0  0
  8 10  1  0  0  0  0
  8  1  1  0  0  0  0
  9  8  1  0  0  0  0
 11 14  1  0  0  0  0
 11 13  1  0  0  0  0
 12 11  1  0  0  0  0
M  END
$$$$
Title Card Required
 OpenBabel07152211483D

 14 13  0  0  0  0  0  0  0  0999 V2000
   -0.9607    1.0785    0.4286 C   0  0  0  0  0  0  0  0  0  0  0  0
   -0.2654    2.0334    0.4252 H   0  0  0  0  0  0  0  0  0  0  0  0
   -0.9003    0.9454    1.5892 H   0  0  0  0  0  0  0  0  0  0  0  0
   -0.1762    0.0632   -0.5133 C   0  0  0  0  0  0  0  0  0  0  0  0
   -0.5683   -0.9384   -0.6178 H   0  0  0  0  0  0  0  0  0  0  0  0
   -0.0502    0.6280   -1.5177 H   0  0  0  0  0  0  0  0  0  0  0  0
    1.7180   -0.0835    0.0048 Br  0  0  0  0  0  0  0  0  0  0  0  0
   -2.4521    1.1507   -0.1385 C   0  0  0  0  0  0  0  0  0  0  0  0
   -2.1158    1.1264   -1.2822 H   0  0  0  0  0  0  0  0  0  0  0  0
   -3.2437    1.8941    0.2332 H   0  0  0  0  0  0  0  0  0  0  0  0
   -3.2475   -0.3716    0.0392 C   0  0  0  0  0  0  0  0  0  0  0  0
   -4.0142   -0.2409   -0.8344 H   0  0  0  0  0  0  0  0  0  0  0  0
   -4.0561   -0.1165    0.8956 H   0  0  0  0  0  0  0  0  0  0  0  0
   -2.3887   -1.3650    0.1841 O   0  0  0  0  0  1  0  0  0  0  0  0
  1  3  1  0  0  0  0
  2  1  1  0  0  0  0
  4  7  1  0  0  0  0
  4  1  1  0  0  0  0
  5  4  1  0  0  0  0
  6  4  1  0  0  0  0
  8 11  1  0  0  0  0
  8 10  1  0  0  0  0
  8  1  1  0  0  0  0
  9  8  1  0  0  0  0
 11 14  1  0  0  0  0
 11 13  1  0  0  0  0
 12 11  1  0  0  0  0
M  END
$$$$
Title Card Required
 OpenBabel07152211483D

 14 13  0  0  0  0  0  0  0  0999 V2000
   -0.9614    1.0722    0.4149 C   0  0  0  0  0  0  0  0  0  0  0  0
   -0.2693    2.0655    0.4106 H   0  0  0  0  0  0  0  0  0  0  0  0
   -0.9720    0.9786    1.5934 H   0  0  0  0  0  0  0  0  0  0  0  0
   -0.1854    0.0529   -0.5032 C   0  0  0  0  0  0  0  0  0  0  0  0
   -0.4702   -0.9514   -0.7003 H   0  0  0  0  0  0  0  0  0  0  0  0
   -0.0496    0.6112   -1.4461 H   0  0  0  0  0  0  0  0  0  0  0  0
    1.7178   -0.0816    0.0046 Br  0  0  0  0  0  0  0  0  0  0  0  0
   -2.4399    1.1413   -0.1396 C   0  0  0  0  0  0  0  0  0  0  0  0
   -2.0772    1.1343   -1.2147 H   0  0  0  0  0  0  0  0  0  0  0  0
   -3.2291    1.8618    0.2854 H   0  0  0  0  0  0  0  0  0  0  0  0
   -3.2457   -0.3491    0.0281 C   0  0  0  0  0  0  0  0  0  0  0  0
   -4.0221   -0.2995   -0.7492 H   0  0  0  0  0  0  0  0  0  0  0  0
   -4.0732   -0.1088    0.9385 H   0  0  0  0  0  0  0  0  0  0  0  0
   -2.3940   -1.3692    0.1828 O   0  0  0  0  0  1  0  0  0  0  0  0
  1  3  1  0  0  0  0
  2  1  1  0  0  0  0
  4  7  1  0  0  0  0
  4  1  1  0  0  0  0
  5  4  1  0  0  0  0
  6  4  1  0  0  0  0
  8 11  1  0  0  0  0
  8 10  1  0  0  0  0
  8  1  1  0  0  0  0
  9  8  1  0  0  0  0
 11 14  1  0  0  0  0
 11 13  1  0  0  0  0
 12 11  1  0  0  0  0
M  END
$$$$
Title Card Required
 OpenBabel07152211483D

 14 13  0  0  0  0  0  0  0  0999 V2000
   -0.9615    1.0681    0.4062 C   0  0  0  0  0  0  0  0  0  0  0  0
   -0.3232    2.0533    0.3756 H   0  0  0  0  0  0  0  0  0  0  0  0
   -1.0415    0.9844    1.5414 H   0  0  0  0  0  0  0  0  0  0  0  0
   -0.1933    0.0479   -0.4912 C   0  0  0  0  0  0  0  0  0  0  0  0
   -0.3981   -0.9836   -0.7735 H   0  0  0  0  0  0  0  0  0  0  0  0
   -0.0580    0.5872   -1.3751 H   0  0  0  0  0  0  0  0  0  0  0  0
    1.7177   -0.0796    0.0045 Br  0  0  0  0  0  0  0  0  0  0  0  0
   -2.4263    1.1274   -0.1416 C   0  0  0  0  0  0  0  0  0  0  0  0
   -2.0847    1.1680   -1.1407 H   0  0  0  0  0  0  0  0  0  0  0  0
   -3.1685    1.8267    0.3135 H   0  0  0  0  0  0  0  0  0  0  0  0
   -3.2392   -0.3247    0.0225 C   0  0  0  0  0  0  0  0  0  0  0  0
   -4.0340   -0.3694   -0.6961 H   0  0  0  0  0  0  0  0  0  0  0  0
   -4.0489   -0.1101    0.9669 H   0  0  0  0  0  0  0  0  0  0  0  0
   -2.4032   -1.3714    0.1805 O   0  0  0  0  0  1  0  0  0  0  0  0
  1  3  1  0  0  0  0
  2  1  1  0  0  0  0
  4  7  1  0  0  0  0
  4  1  1  0  0  0  0
  5  4  1  0  0  0  0
  6  4  1  0  0  0  0
  8 11  1  0  0  0  0
  8 10  1  0  0  0  0
  8  1  1  0  0  0  0
  9  8  1  0  0  0  0
 11 14  1  0  0  0  0
 11 13  1  0  0  0  0
 12 11  1  0  0  0  0
M  END
$$$$
Title Card Required
 OpenBabel07152211483D

 14 13  0  0  0  0  0  0  0  0999 V2000
   -0.9625    1.0650    0.4026 C   0  0  0  0  0  0  0  0  0  0  0  0
   -0.4106    2.0068    0.3249 H   0  0  0  0  0  0  0  0  0  0  0  0
   -1.0941    0.9601    1.4631 H   0  0  0  0  0  0  0  0  0  0  0  0
   -0.1994    0.0440   -0.4762 C   0  0  0  0  0  0  0  0  0  0  0  0
   -0.3607   -1.0123   -0.8188 H   0  0  0  0  0  0  0  0  0  0  0  0
   -0.0670    0.5882   -1.3569 H   0  0  0  0  0  0  0  0  0  0  0  0
    1.7179   -0.0777    0.0045 Br  0  0  0  0  0  0  0  0  0  0  0  0
   -2.4136    1.1093   -0.1408 C   0  0  0  0  0  0  0  0  0  0  0  0
   -2.1258    1.2270   -1.1289 H   0  0  0  0  0  0  0  0  0  0  0  0
   -3.0825    1.8074    0.3217 H   0  0  0  0  0  0  0  0  0  0  0  0
   -3.2272   -0.3023    0.0250 C   0  0  0  0  0  0  0  0  0  0  0  0
   -4.0625   -0.4350   -0.6957 H   0  0  0  0  0  0  0  0  0  0  0  0
   -3.9862   -0.1136    0.9759 H   0  0  0  0  0  0  0  0  0  0  0  0
   -2.4152   -1.3709    0.1772 O   0  0  0  0  0  1  0  0  0  0  0  0
  1  3  1  0  0  0  0
  2  1  1  0  0  0  0
  4  7  1  0  0  0  0
  4  1  1  0  0  0  0
  5  4  1  0  0  0  0
  6  4  1  0  0  0  0
  8 11  1  0  0  0  0
  8 10  1  0  0  0  0
  8  1  1  0  0  0  0
  9  8  1  0  0  0  0
 11 14  1  0  0  0  0
 11 13  1  0  0  0  0
 12 11  1  0  0  0  0
M  END
$$$$
Title Card Required
 OpenBabel07152211483D

 14 13  0  0  0  0  0  0  0  0999 V2000
   -0.9663    1.0595    0.4001 C   0  0  0  0  0  0  0  0  0  0  0  0
   -0.4928    1.9722    0.2666 H   0  0  0  0  0  0  0  0  0  0  0  0
   -1.1269    0.9107    1.4148 H   0  0  0  0  0  0  0  0  0  0  0  0
   -0.2034    0.0394   -0.4608 C   0  0  0  0  0  0  0  0  0  0  0  0
   -0.3547   -1.0158   -0.8274 H   0  0  0  0  0  0  0  0  0  0  0  0
   -0.0746    0.6120   -1.3865 H   0  0  0  0  0  0  0  0  0  0  0  0
    1.7182   -0.0759    0.0047 Br  0  0  0  0  0  0  0  0  0  0  0  0
   -2.4021    1.0882   -0.1382 C   0  0  0  0  0  0  0  0  0  0  0  0
   -2.1841    1.3025   -1.1850 H   0  0  0  0  0  0  0  0  0  0  0  0
   -3.0040    1.8220    0.3282 H   0  0  0  0  0  0  0  0  0  0  0  0
   -3.2130   -0.2849    0.0325 C   0  0  0  0  0  0  0  0  0  0  0  0
   -4.0879   -0.4815   -0.7230 H   0  0  0  0  0  0  0  0  0  0  0  0
   -3.9023   -0.1129    0.9694 H   0  0  0  0  0  0  0  0  0  0  0  0
   -2.4280   -1.3682    0.1734 O   0  0  0  0  0  1  0  0  0  0  0  0
  1  3  1  0  0  0  0
  2  1  1  0  0  0  0
  4  7  1  0  0  0  0
  4  1  1  0  0  0  0
  5  4  1  0  0  0  0
  6  4  1  0  0  0  0
  8 11  1  0  0  0  0
  8 10  1  0  0  0  0
  8  1  1  0  0  0  0
  9  8  1  0  0  0  0
 11 14  1  0  0  0  0
 11 13  1  0  0  0  0
 12 11  1  0  0  0  0
M  END
$$$$
Title Card Required
 OpenBabel07152211483D

 14 13  0  0  0  0  0  0  0  0999 V2000
   -0.9736    1.0489    0.3959 C   0  0  0  0  0  0  0  0  0  0  0  0
   -0.5499    1.9818    0.2036 H   0  0  0  0  0  0  0  0  0  0  0  0
   -1.1449    0.8417    1.4183 H   0  0  0  0  0  0  0  0  0  0  0  0
   -0.2052    0.0353   -0.4482 C   0  0  0  0  0  0  0  0  0  0  0  0
   -0.3741   -0.9961   -0.8038 H   0  0  0  0  0  0  0  0  0  0  0  0
   -0.0851    0.6348   -1.4246 H   0  0  0  0  0  0  0  0  0  0  0  0
    1.7187   -0.0742    0.0051 Br  0  0  0  0  0  0  0  0  0  0  0  0
   -2.3909    1.0652   -0.1382 C   0  0  0  0  0  0  0  0  0  0  0  0
   -2.2580    1.3817   -1.2564 H   0  0  0  0  0  0  0  0  0  0  0  0
   -2.9401    1.8685    0.3425 H   0  0  0  0  0  0  0  0  0  0  0  0
   -3.1983   -0.2722    0.0419 C   0  0  0  0  0  0  0  0  0  0  0  0
   -4.0951   -0.5024   -0.7532 H   0  0  0  0  0  0  0  0  0  0  0  0
   -3.8124   -0.1044    0.9588 H   0  0  0  0  0  0  0  0  0  0  0  0
   -2.4410   -1.3641    0.1693 O   0  0  0  0  0  1  0  0  0  0  0  0
  1  3  1  0  0  0  0
  2  1  1  0  0  0  0
  4  7  1  0  0  0  0
  4  1  1  0  0  0  0
  5  4  1  0  0  0  0
  6  4  1  0  0  0  0
  8 11  1  0  0  0  0
  8 10  1  0  0  0  0
  8  1  1  0  0  0  0
  9  8  1  0  0  0  0
 11 14  1  0  0  0  0
 11 13  1  0  0  0  0
 12 11  1  0  0  0  0
M  END
$$$$
Title Card Required
 OpenBabel07152211483D

 14 13  0  0  0  0  0  0  0  0999 V2000
   -0.9840    1.0331    0.3904 C   0  0  0  0  0  0  0  0  0  0  0  0
   -0.5855    2.0271    0.1431 H   0  0  0  0  0  0  0  0  0  0  0  0
   -1.1472    0.7622    1.4552 H   0  0  0  0  0  0  0  0  0  0  0  0
   -0.2047    0.0338   -0.4401 C   0  0  0  0  0  0  0  0  0  0  0  0
   -0.4177   -0.9672   -0.7542 H   0  0  0  0  0  0  0  0  0  0  0  0
   -0.1011    0.6404   -1.4458 H   0  0  0  0  0  0  0  0  0  0  0  0
    1.7194   -0.0724    0.0055 Br  0  0  0  0  0  0  0  0  0  0  0  0
   -2.3810    1.0432   -0.1433 C   0  0  0  0  0  0  0  0  0  0  0  0
   -2.3429    1.4507   -1.3035 H   0  0  0  0  0  0  0  0  0  0  0  0
   -2.8826    1.9276    0.3597 H   0  0  0  0  0  0  0  0  0  0  0  0
   -3.1835   -0.2642    0.0510 C   0  0  0  0  0  0  0  0  0  0  0  0
   -4.0792   -0.4935   -0.7738 H   0  0  0  0  0  0  0  0  0  0  0  0
   -3.7328   -0.0848    0.9609 H   0  0  0  0  0  0  0  0  0  0  0  0
   -2.4538   -1.3591    0.1649 O   0  0  0  0  0  1  0  0  0  0  0  0
  1  3  1  0  0  0  0
  2  1  1  0  0  0  0
  4  7  1  0  0  0  0
  4  1  1  0  0  0  0
  5  4  1  0  0  0  0
  6  4  1  0  0  0  0
  8 11  1  0  0  0  0
  8 10  1  0  0  0  0
  8  1  1  0  0  0  0
  9  8  1  0  0  0  0
 11 14  1  0  0  0  0
 11 13  1  0  0  0  0
 12 11  1  0  0  0  0
M  END
$$$$
Title Card Required
 OpenBabel07152211483D

 14 13  0  0  0  0  0  0  0  0999 V2000
   -0.9960    1.0135    0.3848 C   0  0  0  0  0  0  0  0  0  0  0  0
   -0.6129    2.0742    0.0987 H   0  0  0  0  0  0  0  0  0  0  0  0
   -1.1302    0.6837    1.4917 H   0  0  0  0  0  0  0  0  0  0  0  0
   -0.2013    0.0371   -0.4371 C   0  0  0  0  0  0  0  0  0  0  0  0
   -0.4895   -0.9498   -0.6821 H   0  0  0  0  0  0  0  0  0  0  0  0
   -0.1235    0.6199   -1.4383 H   0  0  0  0  0  0  0  0  0  0  0  0
    1.7203   -0.0706    0.0061 Br  0  0  0  0  0  0  0  0  0  0  0  0
   -2.3736    1.0250   -0.1546 C   0  0  0  0  0  0  0  0  0  0  0  0
   -2.4322    1.4983   -1.3061 H   0  0  0  0  0  0  0  0  0  0  0  0
   -2.8220    1.9754    0.3714 H   0  0  0  0  0  0  0  0  0  0  0  0
   -3.1685   -0.2605    0.0581 C   0  0  0  0  0  0  0  0  0  0  0  0
   -4.0392   -0.4500   -0.7771 H   0  0  0  0  0  0  0  0  0  0  0  0
   -3.6770   -0.0501    0.9930 H   0  0  0  0  0  0  0  0  0  0  0  0
   -2.4662   -1.3538    0.1600 O   0  0  0  0  0  1  0  0  0  0  0  0
  1  3  1  0  0  0  0
  2  1  1  0  0  0  0
  4  7  1  0  0  0  0
  4  1  1  0  0  0  0
  5  4  1  0  0  0  0
  6  4  1  0  0  0  0
  8 11  1  0  0  0  0
  8 10  1  0  0  0  0
  8  1  1  0  0  0  0
  9  8  1  0  0  0  0
 11 14  1  0  0  0  0
 11 13  1  0  0  0  0
 12 11  1  0  0  0  0
M  END
$$$$
Title Card Required
 OpenBabel07152211483D

 14 13  0  0  0  0  0  0  0  0999 V2000
   -1.0071    0.9934    0.3807 C   0  0  0  0  0  0  0  0  0  0  0  0
   -0.6390    2.0883    0.0874 H   0  0  0  0  0  0  0  0  0  0  0  0
   -1.0962    0.6246    1.4974 H   0  0  0  0  0  0  0  0  0  0  0  0
   -0.1952    0.0454   -0.4392 C   0  0  0  0  0  0  0  0  0  0  0  0
   -0.5831   -0.9559   -0.5955 H   0  0  0  0  0  0  0  0  0  0  0  0
   -0.1483    0.5748   -1.4068 H   0  0  0  0  0  0  0  0  0  0  0  0
    1.7214   -0.0688    0.0069 Br  0  0  0  0  0  0  0  0  0  0  0  0
   -2.3706    1.0146   -0.1712 C   0  0  0  0  0  0  0  0  0  0  0  0
   -2.5079    1.5120   -1.2588 H   0  0  0  0  0  0  0  0  0  0  0  0
   -2.7623    1.9888    0.3713 H   0  0  0  0  0  0  0  0  0  0  0  0
   -3.1555   -0.2603    0.0629 C   0  0  0  0  0  0  0  0  0  0  0  0
   -3.9830   -0.3757   -0.7598 H   0  0  0  0  0  0  0  0  0  0  0  0
   -3.6519   -0.0039    1.0511 H   0  0  0  0  0  0  0  0  0  0  0  0
   -2.4767   -1.3496    0.1551 O   0  0  0  0  0  1  0  0  0  0  0  0
  1  3  1  0  0  0  0
  2  1  1  0  0  0  0
  4  7  1  0  0  0  0
  4  1  1  0  0  0  0
  5  4  1  0  0  0  0
  6  4  1  0  0  0  0
  8 11  1  0  0  0  0
  8 10  1  0  0  0  0
  8  1  1  0  0  0  0
  9  8  1  0  0  0  0
 11 14  1  0  0  0  0
 11 13  1  0  0  0  0
 12 11  1  0  0  0  0
M  END
$$$$
Title Card Required
 OpenBabel07152211483D

 14 13  0  0  0  0  0  0  0  0999 V2000
   -1.0152    0.9756    0.3781 C   0  0  0  0  0  0  0  0  0  0  0  0
   -0.6631    2.0616    0.1118 H   0  0  0  0  0  0  0  0  0  0  0  0
   -1.0544    0.5924    1.4670 H   0  0  0  0  0  0  0  0  0  0  0  0
   -0.1881    0.0547   -0.4439 C   0  0  0  0  0  0  0  0  0  0  0  0
   -0.6788   -0.9670   -0.5016 H   0  0  0  0  0  0  0  0  0  0  0  0
   -0.1699    0.5223   -1.3811 H   0  0  0  0  0  0  0  0  0  0  0  0
    1.7224   -0.0671    0.0077 Br  0  0  0  0  0  0  0  0  0  0  0  0
   -2.3718    1.0123   -0.1899 C   0  0  0  0  0  0  0  0  0  0  0  0
   -2.5584    1.4944   -1.1832 H   0  0  0  0  0  0  0  0  0  0  0  0
   -2.7127    1.9658    0.3626 H   0  0  0  0  0  0  0  0  0  0  0  0
   -3.1461   -0.2612    0.0675 C   0  0  0  0  0  0  0  0  0  0  0  0
   -3.9294   -0.2860   -0.7305 H   0  0  0  0  0  0  0  0  0  0  0  0
   -3.6467    0.0426    1.1093 H   0  0  0  0  0  0  0  0  0  0  0  0
   -2.4845   -1.3475    0.1504 O   0  0  0  0  0  1  0  0  0  0  0  0
  1  3  1  0  0  0  0
  2  1  1  0  0  0  0
  4  7  1  0  0  0  0
  4  1  1  0  0  0  0
  5  4  1  0  0  0  0
  6  4  1  0  0  0  0
  8 11  1  0  0  0  0
  8 10  1  0  0  0  0
  8  1  1  0  0  0  0
  9  8  1  0  0  0  0
 11 14  1  0  0  0  0
 11 13  1  0  0  0  0
 12 11  1  0  0  0  0
M  END
$$$$
Title Card Required
 OpenBabel07152211483D

 14 13  0  0  0  0  0  0  0  0999 V2000
   -1.0202    0.9594    0.3760 C   0  0  0  0  0  0  0  0  0  0  0  0
   -0.6829    2.0028    0.1692 H   0  0  0  0  0  0  0  0  0  0  0  0
   -1.0105    0.5820    1.4110 H   0  0  0  0  0  0  0  0  0  0  0  0
   -0.1813    0.0615   -0.4484 C   0  0  0  0  0  0  0  0  0  0  0  0
   -0.7659   -0.9614   -0.3991 H   0  0  0  0  0  0  0  0  0  0  0  0
   -0.1870    0.4759   -1.3948 H   0  0  0  0  0  0  0  0  0  0  0  0
    1.7235   -0.0653    0.0085 Br  0  0  0  0  0  0  0  0  0  0  0  0
   -2.3760    1.0153   -0.2083 C   0  0  0  0  0  0  0  0  0  0  0  0
   -2.5875    1.4596   -1.1164 H   0  0  0  0  0  0  0  0  0  0  0  0
   -2.6784    1.9165    0.3535 H   0  0  0  0  0  0  0  0  0  0  0  0
   -3.1398   -0.2607    0.0745 C   0  0  0  0  0  0  0  0  0  0  0  0
   -3.8957   -0.1881   -0.7015 H   0  0  0  0  0  0  0  0  0  0  0  0
   -3.6504    0.0838    1.1530 H   0  0  0  0  0  0  0  0  0  0  0  0
   -2.4902   -1.3481    0.1456 O   0  0  0  0  0  1  0  0  0  0  0  0
  1  3  1  0  0  0  0
  2  1  1  0  0  0  0
  4  5  1  0  0  0  0
  4  7  1  0  0  0  0
  4  1  1  0  0  0  0
  6  4  1  0  0  0  0
  8 11  1  0  0  0  0
  8 10  1  0  0  0  0
  8  1  1  0  0  0  0
  9  8  1  0  0  0  0
 11 14  1  0  0  0  0
 11 13  1  0  0  0  0
 12 11  1  0  0  0  0
M  END
$$$$
Title Card Required
 OpenBabel07152211483D

 14 13  0  0  0  0  0  0  0  0999 V2000
   -1.0218    0.9439    0.3719 C   0  0  0  0  0  0  0  0  0  0  0  0
   -0.6878    1.9358    0.2593 H   0  0  0  0  0  0  0  0  0  0  0  0
   -0.9699    0.5833    1.3551 H   0  0  0  0  0  0  0  0  0  0  0  0
   -0.1759    0.0633   -0.4513 C   0  0  0  0  0  0  0  0  0  0  0  0
   -0.8336   -0.9263   -0.2906 H   0  0  0  0  0  0  0  0  0  0  0  0
   -0.1997    0.4372   -1.4645 H   0  0  0  0  0  0  0  0  0  0  0  0
    1.7248   -0.0635    0.0096 Br  0  0  0  0  0  0  0  0  0  0  0  0
   -2.3811    1.0201   -0.2221 C   0  0  0  0  0  0  0  0  0  0  0  0
   -2.6021    1.4296   -1.1198 H   0  0  0  0  0  0  0  0  0  0  0  0
   -2.6715    1.8587    0.3592 H   0  0  0  0  0  0  0  0  0  0  0  0
   -3.1363   -0.2565    0.0865 C   0  0  0  0  0  0  0  0  0  0  0  0
   -3.9013   -0.0889   -0.6836 H   0  0  0  0  0  0  0  0  0  0  0  0
   -3.6568    0.1132    1.1714 H   0  0  0  0  0  0  0  0  0  0  0  0
   -2.4941   -1.3520    0.1401 O   0  0  0  0  0  1  0  0  0  0  0  0
  1  3  1  0  0  0  0
  2  1  1  0  0  0  0
  4  5  1  0  0  0  0
  4  7  1  0  0  0  0
  4  1  1  0  0  0  0
  6  4  1  0  0  0  0
  8 11  1  0  0  0  0
  8 10  1  0  0  0  0
  8  1  1  0  0  0  0
  9  8  1  0  0  0  0
 11 14  1  0  0  0  0
 11 13  1  0  0  0  0
 12 11  1  0  0  0  0
M  END
$$$$
Title Card Required
 OpenBabel07152211483D

 14 13  0  0  0  0  0  0  0  0999 V2000
   -1.0201    0.9300    0.3632 C   0  0  0  0  0  0  0  0  0  0  0  0
   -0.6626    1.9103    0.3667 H   0  0  0  0  0  0  0  0  0  0  0  0
   -0.9429    0.5777    1.3437 H   0  0  0  0  0  0  0  0  0  0  0  0
   -0.1731    0.0601   -0.4549 C   0  0  0  0  0  0  0  0  0  0  0  0
   -0.8664   -0.8695   -0.1981 H   0  0  0  0  0  0  0  0  0  0  0  0
   -0.2070    0.3948   -1.5519 H   0  0  0  0  0  0  0  0  0  0  0  0
    1.7261   -0.0616    0.0107 Br  0  0  0  0  0  0  0  0  0  0  0  0
   -2.3848    1.0233   -0.2284 C   0  0  0  0  0  0  0  0  0  0  0  0
   -2.6015    1.4169   -1.2168 H   0  0  0  0  0  0  0  0  0  0  0  0
   -2.7053    1.8224    0.3928 H   0  0  0  0  0  0  0  0  0  0  0  0
   -3.1369   -0.2476    0.1027 C   0  0  0  0  0  0  0  0  0  0  0  0
   -3.9485   -0.0111   -0.6749 H   0  0  0  0  0  0  0  0  0  0  0  0
   -3.6595    0.1217    1.1567 H   0  0  0  0  0  0  0  0  0  0  0  0
   -2.4962   -1.3587    0.1344 O   0  0  0  0  0  1  0  0  0  0  0  0
  1  2  1  0  0  0  0
  1  3  1  0  0  0  0
  4  5  1  0  0  0  0
  4  7  1  0  0  0  0
  4  1  1  0  0  0  0
  6  4  1  0  0  0  0
  8 11  1  0  0  0  0
  8  1  1  0  0  0  0
  8 10  1  0  0  0  0
  9  8  1  0  0  0  0
 11 14  1  0  0  0  0
 11 13  1  0  0  0  0
 12 11  1  0  0  0  0
M  END
$$$$
Title Card Required
 OpenBabel07152211483D

 14 13  0  0  0  0  0  0  0  0999 V2000
   -1.0156    0.9195    0.3514 C   0  0  0  0  0  0  0  0  0  0  0  0
   -0.6124    1.9333    0.4741 H   0  0  0  0  0  0  0  0  0  0  0  0
   -0.9342    0.5572    1.3771 H   0  0  0  0  0  0  0  0  0  0  0  0
   -0.1726    0.0538   -0.4616 C   0  0  0  0  0  0  0  0  0  0  0  0
   -0.8646   -0.8153   -0.1368 H   0  0  0  0  0  0  0  0  0  0  0  0
   -0.2100    0.3401   -1.6080 H   0  0  0  0  0  0  0  0  0  0  0  0
    1.7273   -0.0598    0.0118 Br  0  0  0  0  0  0  0  0  0  0  0  0
   -2.3875    1.0264   -0.2310 C   0  0  0  0  0  0  0  0  0  0  0  0
   -2.5772    1.4018   -1.3320 H   0  0  0  0  0  0  0  0  0  0  0  0
   -2.7706    1.8114    0.4395 H   0  0  0  0  0  0  0  0  0  0  0  0
   -3.1423   -0.2354    0.1200 C   0  0  0  0  0  0  0  0  0  0  0  0
   -4.0133    0.0316   -0.6608 H   0  0  0  0  0  0  0  0  0  0  0  0
   -3.6556    0.1088    1.1174 H   0  0  0  0  0  0  0  0  0  0  0  0
   -2.4972   -1.3667    0.1286 O   0  0  0  0  0  1  0  0  0  0  0  0
  1  2  1  0  0  0  0
  1  3  1  0  0  0  0
  4  5  1  0  0  0  0
  4  7  1  0  0  0  0
  4  1  1  0  0  0  0
  6  4  1  0  0  0  0
  8 11  1  0  0  0  0
  8  1  1  0  0  0  0
  8 10  1  0  0  0  0
  9  8  1  0  0  0  0
 11 14  1  0  0  0  0
 11 13  1  0  0  0  0
 12 11  1  0  0  0  0
M  END
$$$$
Title Card Required
 OpenBabel07152211483D

 14 13  0  0  0  0  0  0  0  0999 V2000
   -1.0074    0.9148    0.3396 C   0  0  0  0  0  0  0  0  0  0  0  0
   -0.5523    1.9692    0.5791 H   0  0  0  0  0  0  0  0  0  0  0  0
   -0.9456    0.5262    1.4207 H   0  0  0  0  0  0  0  0  0  0  0  0
   -0.1734    0.0451   -0.4733 C   0  0  0  0  0  0  0  0  0  0  0  0
   -0.8356   -0.7819   -0.1054 H   0  0  0  0  0  0  0  0  0  0  0  0
   -0.2104    0.2677   -1.6167 H   0  0  0  0  0  0  0  0  0  0  0  0
    1.7286   -0.0580    0.0130 Br  0  0  0  0  0  0  0  0  0  0  0  0
   -2.3906    1.0324   -0.2332 C   0  0  0  0  0  0  0  0  0  0  0  0
   -2.5244    1.3703   -1.4155 H   0  0  0  0  0  0  0  0  0  0  0  0
   -2.8546    1.8081    0.4759 H   0  0  0  0  0  0  0  0  0  0  0  0
   -3.1525   -0.2210    0.1372 C   0  0  0  0  0  0  0  0  0  0  0  0
   -4.0818    0.0407   -0.6304 H   0  0  0  0  0  0  0  0  0  0  0  0
   -3.6477    0.0788    1.0696 H   0  0  0  0  0  0  0  0  0  0  0  0
   -2.4981   -1.3752    0.1223 O   0  0  0  0  0  1  0  0  0  0  0  0
  1  2  1  0  0  0  0
  1  3  1  0  0  0  0
  4  5  1  0  0  0  0
  4  7  1  0  0  0  0
  4  1  1  0  0  0  0
  6  4  1  0  0  0  0
  8 11  1  0  0  0  0
  8  1  1  0  0  0  0
  8 10  1  0  0  0  0
  9  8  1  0  0  0  0
 11 13  1  0  0  0  0
 12 11  1  0  0  0  0
 14 11  1  0  0  0  0
M  END
$$$$
Title Card Required
 OpenBabel07152211483D

 14 13  0  0  0  0  0  0  0  0999 V2000
   -0.9942    0.9190    0.3322 C   0  0  0  0  0  0  0  0  0  0  0  0
   -0.4996    1.9816    0.6672 H   0  0  0  0  0  0  0  0  0  0  0  0
   -0.9798    0.4927    1.4370 H   0  0  0  0  0  0  0  0  0  0  0  0
   -0.1743    0.0343   -0.4903 C   0  0  0  0  0  0  0  0  0  0  0  0
   -0.7855   -0.7922   -0.1057 H   0  0  0  0  0  0  0  0  0  0  0  0
   -0.2096    0.1799   -1.5758 H   0  0  0  0  0  0  0  0  0  0  0  0
    1.7299   -0.0561    0.0143 Br  0  0  0  0  0  0  0  0  0  0  0  0
   -2.3950    1.0433   -0.2354 C   0  0  0  0  0  0  0  0  0  0  0  0
   -2.4449    1.3179   -1.4339 H   0  0  0  0  0  0  0  0  0  0  0  0
   -2.9403    1.7990    0.4761 H   0  0  0  0  0  0  0  0  0  0  0  0
   -3.1667   -0.2071    0.1511 C   0  0  0  0  0  0  0  0  0  0  0  0
   -4.1414    0.0147   -0.5779 H   0  0  0  0  0  0  0  0  0  0  0  0
   -3.6479    0.0409    1.0500 H   0  0  0  0  0  0  0  0  0  0  0  0
   -2.4999   -1.3831    0.1153 O   0  0  0  0  0  1  0  0  0  0  0  0
  1  2  1  0  0  0  0
  1  3  1  0  0  0  0
  4  5  1  0  0  0  0
  4  7  1  0  0  0  0
  4  1  1  0  0  0  0
  6  4  1  0  0  0  0
  8 11  1  0  0  0  0
  8  1  1  0  0  0  0
  8 10  1  0  0  0  0
  9  8  1  0  0  0  0
 11 13  1  0  0  0  0
 12 11  1  0  0  0  0
 14 11  1  0  0  0  0
M  END
$$$$
Title Card Required
 OpenBabel07152211483D

 14 13  0  0  0  0  0  0  0  0999 V2000
   -0.9790    0.9315    0.3325 C   0  0  0  0  0  0  0  0  0  0  0  0
   -0.4709    1.9541    0.7145 H   0  0  0  0  0  0  0  0  0  0  0  0
   -1.0265    0.4674    1.4067 H   0  0  0  0  0  0  0  0  0  0  0  0
   -0.1744    0.0230   -0.5062 C   0  0  0  0  0  0  0  0  0  0  0  0
   -0.7300   -0.8495   -0.1311 H   0  0  0  0  0  0  0  0  0  0  0  0
   -0.2092    0.0997   -1.5346 H   0  0  0  0  0  0  0  0  0  0  0  0
    1.7311   -0.0543    0.0155 Br  0  0  0  0  0  0  0  0  0  0  0  0
   -2.4001    1.0572   -0.2372 C   0  0  0  0  0  0  0  0  0  0  0  0
   -2.3624    1.2580   -1.3822 H   0  0  0  0  0  0  0  0  0  0  0  0
   -3.0013    1.7841    0.4315 H   0  0  0  0  0  0  0  0  0  0  0  0
   -3.1808   -0.1982    0.1574 C   0  0  0  0  0  0  0  0  0  0  0  0
   -4.1763   -0.0353   -0.5145 H   0  0  0  0  0  0  0  0  0  0  0  0
   -3.6658    0.0121    1.0907 H   0  0  0  0  0  0  0  0  0  0  0  0
   -2.5030   -1.3882    0.1085 O   0  0  0  0  0  1  0  0  0  0  0  0
  1  2  1  0  0  0  0
  1  3  1  0  0  0  0
  4  5  1  0  0  0  0
  4  7  1  0  0  0  0
  4  1  1  0  0  0  0
  6  4  1  0  0  0  0
  8 11  1  0  0  0  0
  8  1  1  0  0  0  0
  8 10  1  0  0  0  0
  9  8  1  0  0  0  0
 11 13  1  0  0  0  0
 12 11  1  0  0  0  0
 14 11  1  0  0  0  0
M  END
$$$$
Title Card Required
 OpenBabel07152211483D

 14 13  0  0  0  0  0  0  0  0999 V2000
   -0.9645    0.9475    0.3382 C   0  0  0  0  0  0  0  0  0  0  0  0
   -0.4619    1.9019    0.7251 H   0  0  0  0  0  0  0  0  0  0  0  0
   -1.0733    0.4498    1.3473 H   0  0  0  0  0  0  0  0  0  0  0  0
   -0.1740    0.0117   -0.5159 C   0  0  0  0  0  0  0  0  0  0  0  0
   -0.6765   -0.9255   -0.1692 H   0  0  0  0  0  0  0  0  0  0  0  0
   -0.2098    0.0385   -1.5413 H   0  0  0  0  0  0  0  0  0  0  0  0
    1.7321   -0.0527    0.0166 Br  0  0  0  0  0  0  0  0  0  0  0  0
   -2.4049    1.0709   -0.2373 C   0  0  0  0  0  0  0  0  0  0  0  0
   -2.2940    1.2046   -1.3038 H   0  0  0  0  0  0  0  0  0  0  0  0
   -3.0360    1.7731    0.3610 H   0  0  0  0  0  0  0  0  0  0  0  0
   -3.1933   -0.1948    0.1587 C   0  0  0  0  0  0  0  0  0  0  0  0
   -4.1890   -0.0928   -0.4537 H   0  0  0  0  0  0  0  0  0  0  0  0
   -3.6866   -0.0064    1.1626 H   0  0  0  0  0  0  0  0  0  0  0  0
   -2.5071   -1.3905    0.1025 O   0  0  0  0  0  1  0  0  0  0  0  0
  1  2  1  0  0  0  0
  1  3  1  0  0  0  0
  4  5  1  0  0  0  0
  4  7  1  0  0  0  0
  4  1  1  0  0  0  0
  6  4  1  0  0  0  0
  8 11  1  0  0  0  0
  8  1  1  0  0  0  0
  8 10  1  0  0  0  0
  9  8  1  0  0  0  0
 11 13  1  0  0  0  0
 12 11  1  0  0  0  0
 14 11  1  0  0  0  0
M  END
$$$$
Title Card Required
 OpenBabel07152211483D

 14 13  0  0  0  0  0  0  0  0999 V2000
   -0.9514    0.9648    0.3466 C   0  0  0  0  0  0  0  0  0  0  0  0
   -0.4596    1.8440    0.7126 H   0  0  0  0  0  0  0  0  0  0  0  0
   -1.1187    0.4323    1.2776 H   0  0  0  0  0  0  0  0  0  0  0  0
   -0.1736   -0.0011   -0.5204 C   0  0  0  0  0  0  0  0  0  0  0  0
   -0.6209   -1.0021   -0.2161 H   0  0  0  0  0  0  0  0  0  0  0  0
   -0.2109   -0.0085   -1.5914 H   0  0  0  0  0  0  0  0  0  0  0  0
    1.7330   -0.0512    0.0176 Br  0  0  0  0  0  0  0  0  0  0  0  0
   -2.4090    1.0836   -0.2341 C   0  0  0  0  0  0  0  0  0  0  0  0
   -2.2371    1.1602   -1.2406 H   0  0  0  0  0  0  0  0  0  0  0  0
   -3.0572    1.7764    0.2766 H   0  0  0  0  0  0  0  0  0  0  0  0
   -3.2052   -0.1957    0.1590 C   0  0  0  0  0  0  0  0  0  0  0  0
   -4.1895   -0.1535   -0.3980 H   0  0  0  0  0  0  0  0  0  0  0  0
   -3.6981   -0.0193    1.2383 H   0  0  0  0  0  0  0  0  0  0  0  0
   -2.5123   -1.3905    0.0965 O   0  0  0  0  0  1  0  0  0  0  0  0
  1  2  1  0  0  0  0
  1  3  1  0  0  0  0
  4  5  1  0  0  0  0
  4  7  1  0  0  0  0
  4  1  1  0  0  0  0
  6  4  1  0  0  0  0
  8 11  1  0  0  0  0
  8 10  1  0  0  0  0
  8  1  1  0  0  0  0
  9  8  1  0  0  0  0
 11 13  1  0  0  0  0
 12 11  1  0  0  0  0
 14 11  1  0  0  0  0
M  END
$$$$
Title Card Required
 OpenBabel07152211483D

 14 13  0  0  0  0  0  0  0  0999 V2000
   -0.9401    0.9821    0.3556 C   0  0  0  0  0  0  0  0  0  0  0  0
   -0.4459    1.8063    0.6889 H   0  0  0  0  0  0  0  0  0  0  0  0
   -1.1657    0.4037    1.2131 H   0  0  0  0  0  0  0  0  0  0  0  0
   -0.1734   -0.0175   -0.5225 C   0  0  0  0  0  0  0  0  0  0  0  0
   -0.5573   -1.0696   -0.2729 H   0  0  0  0  0  0  0  0  0  0  0  0
   -0.2114   -0.0439   -1.6606 H   0  0  0  0  0  0  0  0  0  0  0  0
    1.7341   -0.0495    0.0186 Br  0  0  0  0  0  0  0  0  0  0  0  0
   -2.4123    1.0949   -0.2255 C   0  0  0  0  0  0  0  0  0  0  0  0
   -2.1843    1.1230   -1.2280 H   0  0  0  0  0  0  0  0  0  0  0  0
   -3.0774    1.8096    0.1814 H   0  0  0  0  0  0  0  0  0  0  0  0
   -3.2169   -0.2013    0.1605 C   0  0  0  0  0  0  0  0  0  0  0  0
   -4.1882   -0.2181   -0.3494 H   0  0  0  0  0  0  0  0  0  0  0  0
   -3.6934   -0.0276    1.3061 H   0  0  0  0  0  0  0  0  0  0  0  0
   -2.5194   -1.3880    0.0899 O   0  0  0  0  0  1  0  0  0  0  0  0
  1  2  1  0  0  0  0
  1  3  1  0  0  0  0
  4  5  1  0  0  0  0
  4  7  1  0  0  0  0
  4  1  1  0  0  0  0
  6  4  1  0  0  0  0
  8 11  1  0  0  0  0
  8 10  1  0  0  0  0
  8  1  1  0  0  0  0
  9  8  1  0  0  0  0
 11 13  1  0  0  0  0
 12 11  1  0  0  0  0
 14 11  1  0  0  0  0
M  END
$$$$
Title Card Required
 OpenBabel07152211483D

 14 13  0  0  0  0  0  0  0  0999 V2000
   -0.9333    0.9954    0.3626 C   0  0  0  0  0  0  0  0  0  0  0  0
   -0.3984    1.8253    0.6682 H   0  0  0  0  0  0  0  0  0  0  0  0
   -1.2115    0.3560    1.1754 H   0  0  0  0  0  0  0  0  0  0  0  0
   -0.1735   -0.0385   -0.5250 C   0  0  0  0  0  0  0  0  0  0  0  0
   -0.4879   -1.1116   -0.3352 H   0  0  0  0  0  0  0  0  0  0  0  0
   -0.2099   -0.0615   -1.7128 H   0  0  0  0  0  0  0  0  0  0  0  0
    1.7354   -0.0477    0.0196 Br  0  0  0  0  0  0  0  0  0  0  0  0
   -2.4143    1.1034   -0.2118 C   0  0  0  0  0  0  0  0  0  0  0  0
   -2.1400    1.0924   -1.2754 H   0  0  0  0  0  0  0  0  0  0  0  0
   -3.1022    1.8866    0.0820 H   0  0  0  0  0  0  0  0  0  0  0  0
   -3.2268   -0.2125    0.1656 C   0  0  0  0  0  0  0  0  0  0  0  0
   -4.1986   -0.2803   -0.3177 H   0  0  0  0  0  0  0  0  0  0  0  0
   -3.6668   -0.0292    1.3508 H   0  0  0  0  0  0  0  0  0  0  0  0
   -2.5284   -1.3825    0.0826 O   0  0  0  0  0  1  0  0  0  0  0  0
  1  2  1  0  0  0  0
  1  3  1  0  0  0  0
  4  5  1  0  0  0  0
  4  7  1  0  0  0  0
  4  1  1  0  0  0  0
  6  4  1  0  0  0  0
  8 10  1  0  0  0  0
  8 11  1  0  0  0  0
  8  1  1  0  0  0  0
  9  8  1  0  0  0  0
 11 13  1  0  0  0  0
 12 11  1  0  0  0  0
 14 11  1  0  0  0  0
M  END
$$$$
Title Card Required
 OpenBabel07152211483D

 14 13  0  0  0  0  0  0  0  0999 V2000
   -0.9320    1.0023    0.3668 C   0  0  0  0  0  0  0  0  0  0  0  0
   -0.3261    1.8888    0.6529 H   0  0  0  0  0  0  0  0  0  0  0  0
   -1.2441    0.3007    1.1702 H   0  0  0  0  0  0  0  0  0  0  0  0
   -0.1737   -0.0619   -0.5299 C   0  0  0  0  0  0  0  0  0  0  0  0
   -0.4246   -1.1226   -0.3897 H   0  0  0  0  0  0  0  0  0  0  0  0
   -0.2058   -0.0562   -1.7194 H   0  0  0  0  0  0  0  0  0  0  0  0
    1.7367   -0.0459    0.0206 Br  0  0  0  0  0  0  0  0  0  0  0  0
   -2.4150    1.1092   -0.1986 C   0  0  0  0  0  0  0  0  0  0  0  0
   -2.1202    1.0684   -1.3368 H   0  0  0  0  0  0  0  0  0  0  0  0
   -3.1182    1.9883   -0.0152 H   0  0  0  0  0  0  0  0  0  0  0  0
   -3.2333   -0.2282    0.1749 C   0  0  0  0  0  0  0  0  0  0  0  0
   -4.2266   -0.3282   -0.3085 H   0  0  0  0  0  0  0  0  0  0  0  0
   -3.6209   -0.0234    1.3611 H   0  0  0  0  0  0  0  0  0  0  0  0
   -2.5386   -1.3742    0.0753 O   0  0  0  0  0  1  0  0  0  0  0  0
  1  2  1  0  0  0  0
  1  3  1  0  0  0  0
  4  5  1  0  0  0  0
  4  7  1  0  0  0  0
  4  1  1  0  0  0  0
  6  4  1  0  0  0  0
  8 10  1  0  0  0  0
  8 11  1  0  0  0  0
  8  1  1  0  0  0  0
  9  8  1  0  0  0  0
 11 13  1  0  0  0  0
 12 11  1  0  0  0  0
 14 11  1  0  0  0  0
M  END
$$$$
Title Card Required
 OpenBabel07152211483D

 14 13  0  0  0  0  0  0  0  0999 V2000
   -0.9348    1.0042    0.3705 C   0  0  0  0  0  0  0  0  0  0  0  0
   -0.2583    1.9489    0.6296 H   0  0  0  0  0  0  0  0  0  0  0  0
   -1.2524    0.2562    1.1847 H   0  0  0  0  0  0  0  0  0  0  0  0
   -0.1734   -0.0866   -0.5385 C   0  0  0  0  0  0  0  0  0  0  0  0
   -0.3744   -1.1220   -0.4289 H   0  0  0  0  0  0  0  0  0  0  0  0
   -0.1985   -0.0259   -1.6743 H   0  0  0  0  0  0  0  0  0  0  0  0
    1.7383   -0.0438    0.0216 Br  0  0  0  0  0  0  0  0  0  0  0  0
   -2.4154    1.1147   -0.1895 C   0  0  0  0  0  0  0  0  0  0  0  0
   -2.1338    1.0488   -1.3730 H   0  0  0  0  0  0  0  0  0  0  0  0
   -3.1036    2.0879   -0.1164 H   0  0  0  0  0  0  0  0  0  0  0  0
   -3.2377   -0.2484    0.1892 C   0  0  0  0  0  0  0  0  0  0  0  0
   -4.2644   -0.3566   -0.3148 H   0  0  0  0  0  0  0  0  0  0  0  0
   -3.5568   -0.0112    1.3356 H   0  0  0  0  0  0  0  0  0  0  0  0
   -2.5500   -1.3632    0.0672 O   0  0  0  0  0  1  0  0  0  0  0  0
  1  2  1  0  0  0  0
  1  3  1  0  0  0  0
  4  5  1  0  0  0  0
  4  7  1  0  0  0  0
  4  1  1  0  0  0  0
  6  4  1  0  0  0  0
  8 10  1  0  0  0  0
  8 11  1  0  0  0  0
  8  1  1  0  0  0  0
  9  8  1  0  0  0  0
 11 13  1  0  0  0  0
 12 11  1  0  0  0  0
 14 11  1  0  0  0  0
M  END
$$$$
Title Card Required
 OpenBabel07152211483D

 14 13  0  0  0  0  0  0  0  0999 V2000
   -0.9403    1.0011    0.3752 C   0  0  0  0  0  0  0  0  0  0  0  0
   -0.2292    1.9594    0.5904 H   0  0  0  0  0  0  0  0  0  0  0  0
   -1.2229    0.2472    1.2074 H   0  0  0  0  0  0  0  0  0  0  0  0
   -0.1718   -0.1085   -0.5491 C   0  0  0  0  0  0  0  0  0  0  0  0
   -0.3519   -1.1423   -0.4409 H   0  0  0  0  0  0  0  0  0  0  0  0
   -0.1878    0.0326   -1.6001 H   0  0  0  0  0  0  0  0  0  0  0  0
    1.7401   -0.0416    0.0226 Br  0  0  0  0  0  0  0  0  0  0  0  0
   -2.4165    1.1216   -0.1886 C   0  0  0  0  0  0  0  0  0  0  0  0
   -2.1852    1.0340   -1.3560 H   0  0  0  0  0  0  0  0  0  0  0  0
   -3.0405    2.1510   -0.2119 H   0  0  0  0  0  0  0  0  0  0  0  0
   -3.2418   -0.2710    0.2075 C   0  0  0  0  0  0  0  0  0  0  0  0
   -4.2943   -0.3552   -0.3256 H   0  0  0  0  0  0  0  0  0  0  0  0
   -3.4833    0.0052    1.2825 H   0  0  0  0  0  0  0  0  0  0  0  0
   -2.5615   -1.3503    0.0585 O   0  0  0  0  0  1  0  0  0  0  0  0
  1  2  1  0  0  0  0
  1  3  1  0  0  0  0
  4  5  1  0  0  0  0
  4  7  1  0  0  0  0
  4  1  1  0  0  0  0
  6  4  1  0  0  0  0
  8 11  1  0  0  0  0
  8  1  1  0  0  0  0
  9  8  1  0  0  0  0
 10  8  1  0  0  0  0
 11 13  1  0  0  0  0
 12 11  1  0  0  0  0
 14 11  1  0  0  0  0
M  END
$$$$
Title Card Required
 OpenBabel07152211483D

 14 13  0  0  0  0  0  0  0  0999 V2000
   -0.9467    0.9933    0.3797 C   0  0  0  0  0  0  0  0  0  0  0  0
   -0.2516    1.9083    0.5436 H   0  0  0  0  0  0  0  0  0  0  0  0
   -1.1624    0.2815    1.2307 H   0  0  0  0  0  0  0  0  0  0  0  0
   -0.1692   -0.1237   -0.5553 C   0  0  0  0  0  0  0  0  0  0  0  0
   -0.3616   -1.1863   -0.4272 H   0  0  0  0  0  0  0  0  0  0  0  0
   -0.1755    0.1119   -1.5636 H   0  0  0  0  0  0  0  0  0  0  0  0
    1.7420   -0.0395    0.0235 Br  0  0  0  0  0  0  0  0  0  0  0  0
   -2.4178    1.1297   -0.1964 C   0  0  0  0  0  0  0  0  0  0  0  0
   -2.2553    1.0227   -1.2964 H   0  0  0  0  0  0  0  0  0  0  0  0
   -2.9437    2.1610   -0.2781 H   0  0  0  0  0  0  0  0  0  0  0  0
   -3.2467   -0.2902    0.2245 C   0  0  0  0  0  0  0  0  0  0  0  0
   -4.3019   -0.3245   -0.3291 H   0  0  0  0  0  0  0  0  0  0  0  0
   -3.4246    0.0230    1.2435 H   0  0  0  0  0  0  0  0  0  0  0  0
   -2.5707   -1.3392    0.0500 O   0  0  0  0  0  1  0  0  0  0  0  0
  1  2  1  0  0  0  0
  1  3  1  0  0  0  0
  4  5  1  0  0  0  0
  4  7  1  0  0  0  0
  4  1  1  0  0  0  0
  6  4  1  0  0  0  0
  8 11  1  0  0  0  0
  8  1  1  0  0  0  0
  9  8  1  0  0  0  0
 10  8  1  0  0  0  0
 11 13  1  0  0  0  0
 12 11  1  0  0  0  0
 14 11  1  0  0  0  0
M  END
$$$$
Title Card Required
 OpenBabel07152211483D

 14 13  0  0  0  0  0  0  0  0999 V2000
   -0.9537    0.9814    0.3821 C   0  0  0  0  0  0  0  0  0  0  0  0
   -0.3021    1.8280    0.4987 H   0  0  0  0  0  0  0  0  0  0  0  0
   -1.0890    0.3419    1.2597 H   0  0  0  0  0  0  0  0  0  0  0  0
   -0.1668   -0.1348   -0.5553 C   0  0  0  0  0  0  0  0  0  0  0  0
   -0.3909   -1.2224   -0.4044 H   0  0  0  0  0  0  0  0  0  0  0  0
   -0.1627    0.2012   -1.5790 H   0  0  0  0  0  0  0  0  0  0  0  0
    1.7439   -0.0375    0.0242 Br  0  0  0  0  0  0  0  0  0  0  0  0
   -2.4185    1.1376   -0.2080 C   0  0  0  0  0  0  0  0  0  0  0  0
   -2.3225    1.0067   -1.2425 H   0  0  0  0  0  0  0  0  0  0  0  0
   -2.8404    2.1440   -0.3110 H   0  0  0  0  0  0  0  0  0  0  0  0
   -3.2530   -0.3041    0.2378 C   0  0  0  0  0  0  0  0  0  0  0  0
   -4.2905   -0.2762   -0.3216 H   0  0  0  0  0  0  0  0  0  0  0  0
   -3.3904    0.0425    1.2493 H   0  0  0  0  0  0  0  0  0  0  0  0
   -2.5770   -1.3314    0.0417 O   0  0  0  0  0  1  0  0  0  0  0  0
  1  2  1  0  0  0  0
  1  3  1  0  0  0  0
  4  5  1  0  0  0  0
  4  7  1  0  0  0  0
  4  1  1  0  0  0  0
  6  4  1  0  0  0  0
  8 11  1  0  0  0  0
  8  1  1  0  0  0  0
  9  8  1  0  0  0  0
 10  8  1  0  0  0  0
 11 13  1  0  0  0  0
 12 11  1  0  0  0  0
 14 11  1  0  0  0  0
M  END
$$$$
Title Card Required
 OpenBabel07152211483D

 14 13  0  0  0  0  0  0  0  0999 V2000
   -0.9635    0.9625    0.3807 C   0  0  0  0  0  0  0  0  0  0  0  0
   -0.3469    1.7635    0.4571 H   0  0  0  0  0  0  0  0  0  0  0  0
   -1.0098    0.4152    1.3076 H   0  0  0  0  0  0  0  0  0  0  0  0
   -0.1651   -0.1435   -0.5518 C   0  0  0  0  0  0  0  0  0  0  0  0
   -0.4327   -1.2316   -0.3828 H   0  0  0  0  0  0  0  0  0  0  0  0
   -0.1495    0.2888   -1.6105 H   0  0  0  0  0  0  0  0  0  0  0  0
    1.7460   -0.0356    0.0249 Br  0  0  0  0  0  0  0  0  0  0  0  0
   -2.4171    1.1436   -0.2194 C   0  0  0  0  0  0  0  0  0  0  0  0
   -2.3798    0.9740   -1.2385 H   0  0  0  0  0  0  0  0  0  0  0  0
   -2.7443    2.1386   -0.3146 H   0  0  0  0  0  0  0  0  0  0  0  0
   -3.2614   -0.3124    0.2490 C   0  0  0  0  0  0  0  0  0  0  0  0
   -4.2669   -0.2152   -0.3031 H   0  0  0  0  0  0  0  0  0  0  0  0
   -3.3768    0.0619    1.2980 H   0  0  0  0  0  0  0  0  0  0  0  0
   -2.5809   -1.3269    0.0327 O   0  0  0  0  0  1  0  0  0  0  0  0
  1  2  1  0  0  0  0
  1  3  1  0  0  0  0
  4  5  1  0  0  0  0
  4  7  1  0  0  0  0
  4  1  1  0  0  0  0
  6  4  1  0  0  0  0
  8 11  1  0  0  0  0
  8  1  1  0  0  0  0
  9  8  1  0  0  0  0
 10  8  1  0  0  0  0
 11 13  1  0  0  0  0
 12 11  1  0  0  0  0
 14 11  1  0  0  0  0
M  END
$$$$
Title Card Required
 OpenBabel07152211483D

 14 13  0  0  0  0  0  0  0  0999 V2000
   -0.9774    0.9346    0.3741 C   0  0  0  0  0  0  0  0  0  0  0  0
   -0.3536    1.7603    0.4185 H   0  0  0  0  0  0  0  0  0  0  0  0
   -0.9355    0.4902    1.3778 H   0  0  0  0  0  0  0  0  0  0  0  0
   -0.1645   -0.1487   -0.5472 C   0  0  0  0  0  0  0  0  0  0  0  0
   -0.4804   -1.2075   -0.3710 H   0  0  0  0  0  0  0  0  0  0  0  0
   -0.1380    0.3525   -1.6207 H   0  0  0  0  0  0  0  0  0  0  0  0
    1.7482   -0.0336    0.0256 Br  0  0  0  0  0  0  0  0  0  0  0  0
   -2.4128    1.1452   -0.2285 C   0  0  0  0  0  0  0  0  0  0  0  0
   -2.4225    0.9208   -1.2946 H   0  0  0  0  0  0  0  0  0  0  0  0
   -2.6701    2.1758   -0.2909 H   0  0  0  0  0  0  0  0  0  0  0  0
   -3.2716   -0.3135    0.2604 C   0  0  0  0  0  0  0  0  0  0  0  0
   -4.2412   -0.1497   -0.2767 H   0  0  0  0  0  0  0  0  0  0  0  0
   -3.3805    0.0711    1.3659 H   0  0  0  0  0  0  0  0  0  0  0  0
   -2.5827   -1.3258    0.0229 O   0  0  0  0  0  1  0  0  0  0  0  0
  1  2  1  0  0  0  0
  1  3  1  0  0  0  0
  4  5  1  0  0  0  0
  4  7  1  0  0  0  0
  4  1  1  0  0  0  0
  6  4  1  0  0  0  0
  8 11  1  0  0  0  0
  8  1  1  0  0  0  0
  9  8  1  0  0  0  0
 10  8  1  0  0  0  0
 11 13  1  0  0  0  0
 12 11  1  0  0  0  0
 14 11  1  0  0  0  0
M  END
$$$$
Title Card Required
 OpenBabel07152211483D

 14 13  0  0  0  0  0  0  0  0999 V2000
   -0.9919    0.9023    0.3644 C   0  0  0  0  0  0  0  0  0  0  0  0
   -0.3357    1.8019    0.3800 H   0  0  0  0  0  0  0  0  0  0  0  0
   -0.8781    0.5597    1.4482 H   0  0  0  0  0  0  0  0  0  0  0  0
   -0.1653   -0.1489   -0.5431 C   0  0  0  0  0  0  0  0  0  0  0  0
   -0.5271   -1.1649   -0.3717 H   0  0  0  0  0  0  0  0  0  0  0  0
   -0.1309    0.3776   -1.5948 H   0  0  0  0  0  0  0  0  0  0  0  0
    1.7503   -0.0319    0.0263 Br  0  0  0  0  0  0  0  0  0  0  0  0
   -2.4062    1.1423   -0.2369 C   0  0  0  0  0  0  0  0  0  0  0  0
   -2.4489    0.8643   -1.3623 H   0  0  0  0  0  0  0  0  0  0  0  0
   -2.6196    2.2389   -0.2485 H   0  0  0  0  0  0  0  0  0  0  0  0
   -3.2813   -0.3078    0.2734 C   0  0  0  0  0  0  0  0  0  0  0  0
   -4.2272   -0.0910   -0.2498 H   0  0  0  0  0  0  0  0  0  0  0  0
   -3.3953    0.0632    1.4226 H   0  0  0  0  0  0  0  0  0  0  0  0
   -2.5832   -1.3271    0.0131 O   0  0  0  0  0  1  0  0  0  0  0  0
  1  2  1  0  0  0  0
  1  3  1  0  0  0  0
  4  5  1  0  0  0  0
  4  7  1  0  0  0  0
  4  1  1  0  0  0  0
  6  4  1  0  0  0  0
  8 11  1  0  0  0  0
  8  1  1  0  0  0  0
  9  8  1  0  0  0  0
 10  8  1  0  0  0  0
 11 13  1  0  0  0  0
 12 11  1  0  0  0  0
 14 11  1  0  0  0  0
M  END
$$$$
Title Card Required
 OpenBabel07152211483D

 14 13  0  0  0  0  0  0  0  0999 V2000
   -1.0041    0.8672    0.3530 C   0  0  0  0  0  0  0  0  0  0  0  0
   -0.3245    1.8468    0.3342 H   0  0  0  0  0  0  0  0  0  0  0  0
   -0.8382    0.6313    1.5007 H   0  0  0  0  0  0  0  0  0  0  0  0
   -0.1672   -0.1433   -0.5390 C   0  0  0  0  0  0  0  0  0  0  0  0
   -0.5776   -1.1206   -0.3836 H   0  0  0  0  0  0  0  0  0  0  0  0
   -0.1282    0.3673   -1.5344 H   0  0  0  0  0  0  0  0  0  0  0  0
    1.7526   -0.0301    0.0270 Br  0  0  0  0  0  0  0  0  0  0  0  0
   -2.3982    1.1364   -0.2476 C   0  0  0  0  0  0  0  0  0  0  0  0
   -2.4618    0.8146   -1.4079 H   0  0  0  0  0  0  0  0  0  0  0  0
   -2.5801    2.2959   -0.1911 H   0  0  0  0  0  0  0  0  0  0  0  0
   -3.2902   -0.2960    0.2899 C   0  0  0  0  0  0  0  0  0  0  0  0
   -4.2313   -0.0379   -0.2237 H   0  0  0  0  0  0  0  0  0  0  0  0
   -3.4180    0.0357    1.4585 H   0  0  0  0  0  0  0  0  0  0  0  0
   -2.5837   -1.3297    0.0027 O   0  0  0  0  0  1  0  0  0  0  0  0
  1  3  1  0  0  0  0
  2  1  1  0  0  0  0
  4  5  1  0  0  0  0
  4  7  1  0  0  0  0
  4  1  1  0  0  0  0
  6  4  1  0  0  0  0
  8 10  1  0  0  0  0
  8 11  1  0  0  0  0
  8  1  1  0  0  0  0
  9  8  1  0  0  0  0
 11 13  1  0  0  0  0
 12 11  1  0  0  0  0
 14 11  1  0  0  0  0
M  END
$$$$
Title Card Required
 OpenBabel07152211483D

 14 13  0  0  0  0  0  0  0  0999 V2000
   -1.0110    0.8320    0.3408 C   0  0  0  0  0  0  0  0  0  0  0  0
   -0.3426    1.8632    0.2782 H   0  0  0  0  0  0  0  0  0  0  0  0
   -0.8237    0.7041    1.5118 H   0  0  0  0  0  0  0  0  0  0  0  0
   -0.1701   -0.1312   -0.5326 C   0  0  0  0  0  0  0  0  0  0  0  0
   -0.6352   -1.0929   -0.4067 H   0  0  0  0  0  0  0  0  0  0  0  0
   -0.1297    0.3302   -1.4626 H   0  0  0  0  0  0  0  0  0  0  0  0
    1.7552   -0.0283    0.0278 Br  0  0  0  0  0  0  0  0  0  0  0  0
   -2.3891    1.1279   -0.2619 C   0  0  0  0  0  0  0  0  0  0  0  0
   -2.4591    0.7838   -1.4057 H   0  0  0  0  0  0  0  0  0  0  0  0
   -2.5486    2.3127   -0.1236 H   0  0  0  0  0  0  0  0  0  0  0  0
   -3.2972   -0.2776    0.3112 C   0  0  0  0  0  0  0  0  0  0  0  0
   -4.2572    0.0054   -0.1978 H   0  0  0  0  0  0  0  0  0  0  0  0
   -3.4463   -0.0137    1.4635 H   0  0  0  0  0  0  0  0  0  0  0  0
   -2.5852   -1.3325   -0.0085 O   0  0  0  0  0  1  0  0  0  0  0  0
  1  3  1  0  0  0  0
  2  1  1  0  0  0  0
  4  5  1  0  0  0  0
  4  7  1  0  0  0  0
  4  1  1  0  0  0  0
  6  4  1  0  0  0  0
  8 10  1  0  0  0  0
  8 11  1  0  0  0  0
  8  1  1  0  0  0  0
  9  8  1  0  0  0  0
 11 13  1  0  0  0  0
 12 11  1  0  0  0  0
 14 11  1  0  0  0  0
M  END
$$$$
Title Card Required
 OpenBabel07152211483D

 14 13  0  0  0  0  0  0  0  0999 V2000
   -1.0103    0.8038    0.3299 C   0  0  0  0  0  0  0  0  0  0  0  0
   -0.3954    1.8331    0.2202 H   0  0  0  0  0  0  0  0  0  0  0  0
   -0.8404    0.7619    1.4696 H   0  0  0  0  0  0  0  0  0  0  0  0
   -0.1741   -0.1169   -0.5200 C   0  0  0  0  0  0  0  0  0  0  0  0
   -0.6886   -1.0890   -0.4381 H   0  0  0  0  0  0  0  0  0  0  0  0
   -0.1320    0.2986   -1.4451 H   0  0  0  0  0  0  0  0  0  0  0  0
    1.7577   -0.0266    0.0286 Br  0  0  0  0  0  0  0  0  0  0  0  0
   -2.3807    1.1176   -0.2769 C   0  0  0  0  0  0  0  0  0  0  0  0
   -2.4419    0.7823   -1.3514 H   0  0  0  0  0  0  0  0  0  0  0  0
   -2.5295    2.2686   -0.0635 H   0  0  0  0  0  0  0  0  0  0  0  0
   -3.3012   -0.2555    0.3333 C   0  0  0  0  0  0  0  0  0  0  0  0
   -4.2940    0.0279   -0.1711 H   0  0  0  0  0  0  0  0  0  0  0  0
   -3.4732   -0.0740    1.4389 H   0  0  0  0  0  0  0  0  0  0  0  0
   -2.5888   -1.3340   -0.0193 O   0  0  0  0  0  1  0  0  0  0  0  0
  1  3  1  0  0  0  0
  2  1  1  0  0  0  0
  4  5  1  0  0  0  0
  4  7  1  0  0  0  0
  4  1  1  0  0  0  0
  6  4  1  0  0  0  0
  8 10  1  0  0  0  0
  8  1  1  0  0  0  0
  8 11  1  0  0  0  0
  9  8  1  0  0  0  0
 11 13  1  0  0  0  0
 12 11  1  0  0  0  0
 14 11  1  0  0  0  0
M  END
$$$$
Title Card Required
 OpenBabel07152211483D

 14 13  0  0  0  0  0  0  0  0999 V2000
   -1.0039    0.7858    0.3203 C   0  0  0  0  0  0  0  0  0  0  0  0
   -0.4660    1.7709    0.1685 H   0  0  0  0  0  0  0  0  0  0  0  0
   -0.8791    0.7937    1.4014 H   0  0  0  0  0  0  0  0  0  0  0  0
   -0.1789   -0.1058   -0.5022 C   0  0  0  0  0  0  0  0  0  0  0  0
   -0.7232   -1.0936   -0.4714 H   0  0  0  0  0  0  0  0  0  0  0  0
   -0.1327    0.2879   -1.4963 H   0  0  0  0  0  0  0  0  0  0  0  0
    1.7600   -0.0251    0.0293 Br  0  0  0  0  0  0  0  0  0  0  0  0
   -2.3740    1.1060   -0.2875 C   0  0  0  0  0  0  0  0  0  0  0  0
   -2.4186    0.7999   -1.2875 H   0  0  0  0  0  0  0  0  0  0  0  0
   -2.5250    2.1830   -0.0215 H   0  0  0  0  0  0  0  0  0  0  0  0
   -3.3025   -0.2332    0.3513 C   0  0  0  0  0  0  0  0  0  0  0  0
   -4.3259    0.0285   -0.1422 H   0  0  0  0  0  0  0  0  0  0  0  0
   -3.4950   -0.1293    1.4128 H   0  0  0  0  0  0  0  0  0  0  0  0
   -2.5945   -1.3335   -0.0285 O   0  0  0  0  0  1  0  0  0  0  0  0
  1  3  1  0  0  0  0
  2  1  1  0  0  0  0
  4  5  1  0  0  0  0
  4  7  1  0  0  0  0
  4  1  1  0  0  0  0
  6  4  1  0  0  0  0
  8 10  1  0  0  0  0
  8  1  1  0  0  0  0
  8 11  1  0  0  0  0
  9  8  1  0  0  0  0
 11 13  1  0  0  0  0
 12 11  1  0  0  0  0
 14 11  1  0  0  0  0
M  END
$$$$
Title Card Required
 OpenBabel07152211483D

 14 13  0  0  0  0  0  0  0  0999 V2000
   -0.9946    0.7752    0.3082 C   0  0  0  0  0  0  0  0  0  0  0  0
   -0.5395    1.7032    0.1164 H   0  0  0  0  0  0  0  0  0  0  0  0
   -0.9341    0.7998    1.3447 H   0  0  0  0  0  0  0  0  0  0  0  0
   -0.1848   -0.0978   -0.4829 C   0  0  0  0  0  0  0  0  0  0  0  0
   -0.7351   -1.0952   -0.5044 H   0  0  0  0  0  0  0  0  0  0  0  0
   -0.1335    0.2806   -1.5721 H   0  0  0  0  0  0  0  0  0  0  0  0
    1.7623   -0.0237    0.0301 Br  0  0  0  0  0  0  0  0  0  0  0  0
   -2.3681    1.0898   -0.2897 C   0  0  0  0  0  0  0  0  0  0  0  0
   -2.3945    0.8211   -1.2670 H   0  0  0  0  0  0  0  0  0  0  0  0
   -2.5380    2.0836    0.0097 H   0  0  0  0  0  0  0  0  0  0  0  0
   -3.3010   -0.2096    0.3638 C   0  0  0  0  0  0  0  0  0  0  0  0
   -4.3491    0.0109   -0.1072 H   0  0  0  0  0  0  0  0  0  0  0  0
   -3.5151   -0.1766    1.4131 H   0  0  0  0  0  0  0  0  0  0  0  0
   -2.6031   -1.3306   -0.0373 O   0  0  0  0  0  1  0  0  0  0  0  0
  1  3  1  0  0  0  0
  2  1  1  0  0  0  0
  4  7  1  0  0  0  0
  4  1  1  0  0  0  0
  5  4  1  0  0  0  0
  6  4  1  0  0  0  0
  8 10  1  0  0  0  0
  8  1  1  0  0  0  0
  8 11  1  0  0  0  0
  9  8  1  0  0  0  0
 11 13  1  0  0  0  0
 12 11  1  0  0  0  0
 14 11  1  0  0  0  0
M  END
$$$$
Title Card Required
 OpenBabel07152211483D

 14 13  0  0  0  0  0  0  0  0999 V2000
   -0.9856    0.7704    0.2907 C   0  0  0  0  0  0  0  0  0  0  0  0
   -0.5854    1.6872    0.0554 H   0  0  0  0  0  0  0  0  0  0  0  0
   -1.0040    0.7731    1.3462 H   0  0  0  0  0  0  0  0  0  0  0  0
   -0.1908   -0.0947   -0.4678 C   0  0  0  0  0  0  0  0  0  0  0  0
   -0.7148   -1.0884   -0.5320 H   0  0  0  0  0  0  0  0  0  0  0  0
   -0.1380    0.2597   -1.6224 H   0  0  0  0  0  0  0  0  0  0  0  0
    1.7648   -0.0222    0.0310 Br  0  0  0  0  0  0  0  0  0  0  0  0
   -2.3633    1.0619   -0.2792 C   0  0  0  0  0  0  0  0  0  0  0  0
   -2.3734    0.8391   -1.3329 H   0  0  0  0  0  0  0  0  0  0  0  0
   -2.5830    2.0217    0.0434 H   0  0  0  0  0  0  0  0  0  0  0  0
   -3.2957   -0.1842    0.3680 C   0  0  0  0  0  0  0  0  0  0  0  0
   -4.3592   -0.0237   -0.0646 H   0  0  0  0  0  0  0  0  0  0  0  0
   -3.5313   -0.2092    1.4582 H   0  0  0  0  0  0  0  0  0  0  0  0
   -2.6161   -1.3241   -0.0460 O   0  0  0  0  0  1  0  0  0  0  0  0
  1  3  1  0  0  0  0
  2  1  1  0  0  0  0
  4  7  1  0  0  0  0
  4  1  1  0  0  0  0
  5  4  1  0  0  0  0
  6  4  1  0  0  0  0
  8 10  1  0  0  0  0
  8  1  1  0  0  0  0
  8 11  1  0  0  0  0
  9  8  1  0  0  0  0
 11 13  1  0  0  0  0
 12 11  1  0  0  0  0
 14 11  1  0  0  0  0
M  END
$$$$
Title Card Required
 OpenBabel07152211483D

 14 13  0  0  0  0  0  0  0  0999 V2000
   -0.9813    0.7728    0.2747 C   0  0  0  0  0  0  0  0  0  0  0  0
   -0.5814    1.7467    0.0033 H   0  0  0  0  0  0  0  0  0  0  0  0
   -1.0659    0.7234    1.3895 H   0  0  0  0  0  0  0  0  0  0  0  0
   -0.1937   -0.0985   -0.4645 C   0  0  0  0  0  0  0  0  0  0  0  0
   -0.6702   -1.0819   -0.5412 H   0  0  0  0  0  0  0  0  0  0  0  0
   -0.1456    0.2274   -1.6063 H   0  0  0  0  0  0  0  0  0  0  0  0
    1.7670   -0.0210    0.0319 Br  0  0  0  0  0  0  0  0  0  0  0  0
   -2.3618    1.0266   -0.2635 C   0  0  0  0  0  0  0  0  0  0  0  0
   -2.3621    0.8620   -1.4147 H   0  0  0  0  0  0  0  0  0  0  0  0
   -2.6493    2.0277    0.0770 H   0  0  0  0  0  0  0  0  0  0  0  0
   -3.2878   -0.1645    0.3648 C   0  0  0  0  0  0  0  0  0  0  0  0
   -4.3557   -0.0589   -0.0276 H   0  0  0  0  0  0  0  0  0  0  0  0
   -3.5310   -0.2141    1.5119 H   0  0  0  0  0  0  0  0  0  0  0  0
   -2.6304   -1.3156   -0.0526 O   0  0  0  0  0  1  0  0  0  0  0  0
  1  3  1  0  0  0  0
  2  1  1  0  0  0  0
  4  7  1  0  0  0  0
  4  1  1  0  0  0  0
  5  4  1  0  0  0  0
  6  4  1  0  0  0  0
  8 10  1  0  0  0  0
  8  1  1  0  0  0  0
  8 11  1  0  0  0  0
  9  8  1  0  0  0  0
 11 13  1  0  0  0  0
 12 11  1  0  0  0  0
 14 11  1  0  0  0  0
M  END
$$$$
Title Card Required
 OpenBabel07152211483D

 14 13  0  0  0  0  0  0  0  0999 V2000
   -0.9802    0.7837    0.2629 C   0  0  0  0  0  0  0  0  0  0  0  0
   -0.5557    1.8239   -0.0270 H   0  0  0  0  0  0  0  0  0  0  0  0
   -1.1139    0.6638    1.4191 H   0  0  0  0  0  0  0  0  0  0  0  0
   -0.1926   -0.1074   -0.4710 C   0  0  0  0  0  0  0  0  0  0  0  0
   -0.6153   -1.0906   -0.5322 H   0  0  0  0  0  0  0  0  0  0  0  0
   -0.1541    0.1902   -1.5411 H   0  0  0  0  0  0  0  0  0  0  0  0
    1.7690   -0.0200    0.0328 Br  0  0  0  0  0  0  0  0  0  0  0  0
   -2.3649    0.9886   -0.2476 C   0  0  0  0  0  0  0  0  0  0  0  0
   -2.3595    0.8943   -1.4560 H   0  0  0  0  0  0  0  0  0  0  0  0
   -2.7189    2.0461    0.1000 H   0  0  0  0  0  0  0  0  0  0  0  0
   -3.2780   -0.1504    0.3580 C   0  0  0  0  0  0  0  0  0  0  0  0
   -4.3466   -0.0866    0.0022 H   0  0  0  0  0  0  0  0  0  0  0  0
   -3.5113   -0.1937    1.5470 H   0  0  0  0  0  0  0  0  0  0  0  0
   -2.6459   -1.3054   -0.0576 O   0  0  0  0  0  1  0  0  0  0  0  0
  1  3  1  0  0  0  0
  2  1  1  0  0  0  0
  4  7  1  0  0  0  0
  4  1  1  0  0  0  0
  5  4  1  0  0  0  0
  6  4  1  0  0  0  0
  8 10  1  0  0  0  0
  8  1  1  0  0  0  0
  8 11  1  0  0  0  0
  9  8  1  0  0  0  0
 11 13  1  0  0  0  0
 12 11  1  0  0  0  0
 14 11  1  0  0  0  0
M  END
$$$$
Title Card Required
 OpenBabel07152211483D

 14 13  0  0  0  0  0  0  0  0999 V2000
   -0.9808    0.8041    0.2563 C   0  0  0  0  0  0  0  0  0  0  0  0
   -0.5272    1.8791   -0.0274 H   0  0  0  0  0  0  0  0  0  0  0  0
   -1.1430    0.6033    1.4093 H   0  0  0  0  0  0  0  0  0  0  0  0
   -0.1878   -0.1205   -0.4829 C   0  0  0  0  0  0  0  0  0  0  0  0
   -0.5578   -1.1261   -0.5037 H   0  0  0  0  0  0  0  0  0  0  0  0
   -0.1606    0.1589   -1.4695 H   0  0  0  0  0  0  0  0  0  0  0  0
    1.7708   -0.0190    0.0336 Br  0  0  0  0  0  0  0  0  0  0  0  0
   -2.3734    0.9514   -0.2326 C   0  0  0  0  0  0  0  0  0  0  0  0
   -2.3656    0.9327   -1.4390 H   0  0  0  0  0  0  0  0  0  0  0  0
   -2.7790    2.0406    0.1060 H   0  0  0  0  0  0  0  0  0  0  0  0
   -3.2663   -0.1420    0.3495 C   0  0  0  0  0  0  0  0  0  0  0  0
   -4.3382   -0.1021    0.0240 H   0  0  0  0  0  0  0  0  0  0  0  0
   -3.4707   -0.1482    1.5538 H   0  0  0  0  0  0  0  0  0  0  0  0
   -2.6627   -1.2936   -0.0616 O   0  0  0  0  0  1  0  0  0  0  0  0
  1  3  1  0  0  0  0
  2  1  1  0  0  0  0
  4  7  1  0  0  0  0
  4  1  1  0  0  0  0
  5  4  1  0  0  0  0
  6  4  1  0  0  0  0
  8 10  1  0  0  0  0
  8  1  1  0  0  0  0
  8 11  1  0  0  0  0
  9  8  1  0  0  0  0
 11 13  1  0  0  0  0
 12 11  1  0  0  0  0
 14 11  1  0  0  0  0
M  END
$$$$
Title Card Required
 OpenBabel07152211483D

 14 13  0  0  0  0  0  0  0  0999 V2000
   -0.9820    0.8305    0.2545 C   0  0  0  0  0  0  0  0  0  0  0  0
   -0.5082    1.8929    0.0019 H   0  0  0  0  0  0  0  0  0  0  0  0
   -1.1485    0.5546    1.3606 H   0  0  0  0  0  0  0  0  0  0  0  0
   -0.1804   -0.1365   -0.4932 C   0  0  0  0  0  0  0  0  0  0  0  0
   -0.5049   -1.1792   -0.4592 H   0  0  0  0  0  0  0  0  0  0  0  0
   -0.1615    0.1493   -1.4572 H   0  0  0  0  0  0  0  0  0  0  0  0
    1.7725   -0.0181    0.0344 Br  0  0  0  0  0  0  0  0  0  0  0  0
   -2.3866    0.9207   -0.2203 C   0  0  0  0  0  0  0  0  0  0  0  0
   -2.3800    0.9673   -1.3712 H   0  0  0  0  0  0  0  0  0  0  0  0
   -2.8192    2.0003    0.0957 H   0  0  0  0  0  0  0  0  0  0  0  0
   -3.2540   -0.1400    0.3409 C   0  0  0  0  0  0  0  0  0  0  0  0
   -4.3349   -0.1011    0.0363 H   0  0  0  0  0  0  0  0  0  0  0  0
   -3.4146   -0.0844    1.5328 H   0  0  0  0  0  0  0  0  0  0  0  0
   -2.6795   -1.2818   -0.0647 O   0  0  0  0  0  1  0  0  0  0  0  0
  1  3  1  0  0  0  0
  2  1  1  0  0  0  0
  4  5  1  0  0  0  0
  4  7  1  0  0  0  0
  4  1  1  0  0  0  0
  6  4  1  0  0  0  0
  8 10  1  0  0  0  0
  8  1  1  0  0  0  0
  8 11  1  0  0  0  0
  9  8  1  0  0  0  0
 11 13  1  0  0  0  0
 12 11  1  0  0  0  0
 14 11  1  0  0  0  0
M  END
$$$$
Title Card Required
 OpenBabel07152211483D

 14 13  0  0  0  0  0  0  0  0999 V2000
   -0.9827    0.8573    0.2554 C   0  0  0  0  0  0  0  0  0  0  0  0
   -0.5012    1.8728    0.0499 H   0  0  0  0  0  0  0  0  0  0  0  0
   -1.1346    0.5227    1.2973 H   0  0  0  0  0  0  0  0  0  0  0  0
   -0.1727   -0.1536   -0.4992 C   0  0  0  0  0  0  0  0  0  0  0  0
   -0.4590   -1.2269   -0.4087 H   0  0  0  0  0  0  0  0  0  0  0  0
   -0.1574    0.1584   -1.5092 H   0  0  0  0  0  0  0  0  0  0  0  0
    1.7740   -0.0173    0.0351 Br  0  0  0  0  0  0  0  0  0  0  0  0
   -2.4015    0.8994   -0.2108 C   0  0  0  0  0  0  0  0  0  0  0  0
   -2.4001    0.9912   -1.2882 H   0  0  0  0  0  0  0  0  0  0  0  0
   -2.8403    1.9373    0.0775 H   0  0  0  0  0  0  0  0  0  0  0  0
   -3.2432   -0.1430    0.3335 C   0  0  0  0  0  0  0  0  0  0  0  0
   -4.3364   -0.0857    0.0411 H   0  0  0  0  0  0  0  0  0  0  0  0
   -3.3534   -0.0148    1.4967 H   0  0  0  0  0  0  0  0  0  0  0  0
   -2.6946   -1.2718   -0.0670 O   0  0  0  0  0  1  0  0  0  0  0  0
  1  3  1  0  0  0  0
  2  1  1  0  0  0  0
  4  5  1  0  0  0  0
  4  7  1  0  0  0  0
  4  1  1  0  0  0  0
  6  4  1  0  0  0  0
  8 10  1  0  0  0  0
  8  1  1  0  0  0  0
  8 11  1  0  0  0  0
  9  8  1  0  0  0  0
 11 13  1  0  0  0  0
 12 11  1  0  0  0  0
 14 11  1  0  0  0  0
M  END
$$$$
Title Card Required
 OpenBabel07152211483D

 14 13  0  0  0  0  0  0  0  0999 V2000
   -0.9830    0.8836    0.2568 C   0  0  0  0  0  0  0  0  0  0  0  0
   -0.5000    1.8372    0.1105 H   0  0  0  0  0  0  0  0  0  0  0  0
   -1.1065    0.5008    1.2402 H   0  0  0  0  0  0  0  0  0  0  0  0
   -0.1648   -0.1716   -0.5038 C   0  0  0  0  0  0  0  0  0  0  0  0
   -0.4160   -1.2597   -0.3551 H   0  0  0  0  0  0  0  0  0  0  0  0
   -0.1506    0.1690   -1.5850 H   0  0  0  0  0  0  0  0  0  0  0  0
    1.7755   -0.0166    0.0358 Br  0  0  0  0  0  0  0  0  0  0  0  0
   -2.4173    0.8852   -0.2016 C   0  0  0  0  0  0  0  0  0  0  0  0
   -2.4252    1.0054   -1.2225 H   0  0  0  0  0  0  0  0  0  0  0  0
   -2.8512    1.8646    0.0591 H   0  0  0  0  0  0  0  0  0  0  0  0
   -3.2339   -0.1498    0.3269 C   0  0  0  0  0  0  0  0  0  0  0  0
   -4.3404   -0.0579    0.0421 H   0  0  0  0  0  0  0  0  0  0  0  0
   -3.2885    0.0588    1.4556 H   0  0  0  0  0  0  0  0  0  0  0  0
   -2.7090   -1.2636   -0.0692 O   0  0  0  0  0  1  0  0  0  0  0  0
  1  3  1  0  0  0  0
  2  1  1  0  0  0  0
  4  5  1  0  0  0  0
  4  7  1  0  0  0  0
  4  1  1  0  0  0  0
  6  4  1  0  0  0  0
  8 10  1  0  0  0  0
  8  1  1  0  0  0  0
  8 11  1  0  0  0  0
  9  8  1  0  0  0  0
 11 13  1  0  0  0  0
 12 11  1  0  0  0  0
 14 11  1  0  0  0  0
M  END
$$$$
Title Card Required
 OpenBabel07152211483D

 14 13  0  0  0  0  0  0  0  0999 V2000
   -0.9838    0.9095    0.2570 C   0  0  0  0  0  0  0  0  0  0  0  0
   -0.4919    1.8105    0.1855 H   0  0  0  0  0  0  0  0  0  0  0  0
   -1.0628    0.4806    1.2091 H   0  0  0  0  0  0  0  0  0  0  0  0
   -0.1559   -0.1912   -0.5103 C   0  0  0  0  0  0  0  0  0  0  0  0
   -0.3717   -1.2723   -0.2965 H   0  0  0  0  0  0  0  0  0  0  0  0
   -0.1418    0.1650   -1.6566 H   0  0  0  0  0  0  0  0  0  0  0  0
    1.7771   -0.0158    0.0365 Br  0  0  0  0  0  0  0  0  0  0  0  0
   -2.4341    0.8767   -0.1902 C   0  0  0  0  0  0  0  0  0  0  0  0
   -2.4581    1.0112   -1.2079 H   0  0  0  0  0  0  0  0  0  0  0  0
   -2.8645    1.7981    0.0495 H   0  0  0  0  0  0  0  0  0  0  0  0
   -3.2260   -0.1611    0.3204 C   0  0  0  0  0  0  0  0  0  0  0  0
   -4.3450   -0.0142    0.0416 H   0  0  0  0  0  0  0  0  0  0  0  0
   -3.2159    0.1409    1.4166 H   0  0  0  0  0  0  0  0  0  0  0  0
   -2.7245   -1.2575   -0.0716 O   0  0  0  0  0  1  0  0  0  0  0  0
  1  3  1  0  0  0  0
  2  1  1  0  0  0  0
  4  5  1  0  0  0  0
  4  7  1  0  0  0  0
  4  1  1  0  0  0  0
  6  4  1  0  0  0  0
  8 10  1  0  0  0  0
  8  1  1  0  0  0  0
  8 11  1  0  0  0  0
  9  8  1  0  0  0  0
 11 13  1  0  0  0  0
 12 11  1  0  0  0  0
 14 11  1  0  0  0  0
M  END
$$$$
Title Card Required
 OpenBabel07152211483D

 14 13  0  0  0  0  0  0  0  0999 V2000
   -0.9865    0.9297    0.2543 C   0  0  0  0  0  0  0  0  0  0  0  0
   -0.4566    1.8338    0.2700 H   0  0  0  0  0  0  0  0  0  0  0  0
   -1.0036    0.4584    1.2281 H   0  0  0  0  0  0  0  0  0  0  0  0
   -0.1461   -0.2103   -0.5211 C   0  0  0  0  0  0  0  0  0  0  0  0
   -0.3318   -1.2580   -0.2390 H   0  0  0  0  0  0  0  0  0  0  0  0
   -0.1322    0.1265   -1.6880 H   0  0  0  0  0  0  0  0  0  0  0  0
    1.7790   -0.0148    0.0374 Br  0  0  0  0  0  0  0  0  0  0  0  0
   -2.4485    0.8756   -0.1783 C   0  0  0  0  0  0  0  0  0  0  0  0
   -2.4970    1.0035   -1.2683 H   0  0  0  0  0  0  0  0  0  0  0  0
   -2.8997    1.7814    0.0671 H   0  0  0  0  0  0  0  0  0  0  0  0
   -3.2217   -0.1764    0.3148 C   0  0  0  0  0  0  0  0  0  0  0  0
   -4.3458    0.0457    0.0437 H   0  0  0  0  0  0  0  0  0  0  0  0
   -3.1419    0.2221    1.3969 H   0  0  0  0  0  0  0  0  0  0  0  0
   -2.7407   -1.2566   -0.0748 O   0  0  0  0  0  1  0  0  0  0  0  0
  1  2  1  0  0  0  0
  1  3  1  0  0  0  0
  4  5  1  0  0  0  0
  4  7  1  0  0  0  0
  4  1  1  0  0  0  0
  6  4  1  0  0  0  0
  8 10  1  0  0  0  0
  8  1  1  0  0  0  0
  8 11  1  0  0  0  0
  9  8  1  0  0  0  0
 11 13  1  0  0  0  0
 12 11  1  0  0  0  0
 14 11  1  0  0  0  0
M  END
$$$$
Title Card Required
 OpenBabel07152211483D

 14 13  0  0  0  0  0  0  0  0999 V2000
   -0.9898    0.9390    0.2504 C   0  0  0  0  0  0  0  0  0  0  0  0
   -0.4063    1.8957    0.3461 H   0  0  0  0  0  0  0  0  0  0  0  0
   -0.9424    0.4469    1.2755 H   0  0  0  0  0  0  0  0  0  0  0  0
   -0.1367   -0.2230   -0.5354 C   0  0  0  0  0  0  0  0  0  0  0  0
   -0.3095   -1.2303   -0.1947 H   0  0  0  0  0  0  0  0  0  0  0  0
   -0.1244    0.0511   -1.6562 H   0  0  0  0  0  0  0  0  0  0  0  0
    1.7810   -0.0139    0.0382 Br  0  0  0  0  0  0  0  0  0  0  0  0
   -2.4568    0.8848   -0.1733 C   0  0  0  0  0  0  0  0  0  0  0  0
   -2.5305    0.9798   -1.3483 H   0  0  0  0  0  0  0  0  0  0  0  0
   -2.9560    1.8250    0.1115 H   0  0  0  0  0  0  0  0  0  0  0  0
   -3.2231   -0.1907    0.3123 C   0  0  0  0  0  0  0  0  0  0  0  0
   -4.3382    0.1057    0.0530 H   0  0  0  0  0  0  0  0  0  0  0  0
   -3.0864    0.2749    1.4068 H   0  0  0  0  0  0  0  0  0  0  0  0
   -2.7548   -1.2634   -0.0786 O   0  0  0  0  0  1  0  0  0  0  0  0
  1  2  1  0  0  0  0
  1  3  1  0  0  0  0
  4  5  1  0  0  0  0
  4  7  1  0  0  0  0
  4  1  1  0  0  0  0
  6  4  1  0  0  0  0
  8 10  1  0  0  0  0
  8  1  1  0  0  0  0
  8 11  1  0  0  0  0
  9  8  1  0  0  0  0
 11 13  1  0  0  0  0
 12 11  1  0  0  0  0
 14 11  1  0  0  0  0
M  END
$$$$
Title Card Required
 OpenBabel07152211483D

 14 13  0  0  0  0  0  0  0  0999 V2000
   -0.9905    0.9407    0.2480 C   0  0  0  0  0  0  0  0  0  0  0  0
   -0.3709    1.9470    0.4071 H   0  0  0  0  0  0  0  0  0  0  0  0
   -0.8864    0.4592    1.3147 H   0  0  0  0  0  0  0  0  0  0  0  0
   -0.1273   -0.2285   -0.5512 C   0  0  0  0  0  0  0  0  0  0  0  0
   -0.3091   -1.2081   -0.1586 H   0  0  0  0  0  0  0  0  0  0  0  0
   -0.1183   -0.0547   -1.5875 H   0  0  0  0  0  0  0  0  0  0  0  0
    1.7831   -0.0129    0.0390 Br  0  0  0  0  0  0  0  0  0  0  0  0
   -2.4613    0.9074   -0.1776 C   0  0  0  0  0  0  0  0  0  0  0  0
   -2.5544    0.9433   -1.3981 H   0  0  0  0  0  0  0  0  0  0  0  0
   -3.0120    1.8847    0.1656 H   0  0  0  0  0  0  0  0  0  0  0  0
   -3.2299   -0.2015    0.3139 C   0  0  0  0  0  0  0  0  0  0  0  0
   -4.3214    0.1578    0.0731 H   0  0  0  0  0  0  0  0  0  0  0  0
   -3.0526    0.2894    1.4390 H   0  0  0  0  0  0  0  0  0  0  0  0
   -2.7677   -1.2788   -0.0834 O   0  0  0  0  0  1  0  0  0  0  0  0
  1  2  1  0  0  0  0
  1  3  1  0  0  0  0
  4  5  1  0  0  0  0
  4  7  1  0  0  0  0
  4  1  1  0  0  0  0
  6  4  1  0  0  0  0
  8 10  1  0  0  0  0
  8  1  1  0  0  0  0
  8 11  1  0  0  0  0
  9  8  1  0  0  0  0
 11 13  1  0  0  0  0
 12 11  1  0  0  0  0
 14 11  1  0  0  0  0
M  END
$$$$
Title Card Required
 OpenBabel07152211483D

 14 13  0  0  0  0  0  0  0  0999 V2000
   -0.9857    0.9370    0.2488 C   0  0  0  0  0  0  0  0  0  0  0  0
   -0.3734    1.9510    0.4388 H   0  0  0  0  0  0  0  0  0  0  0  0
   -0.8475    0.5009    1.3192 H   0  0  0  0  0  0  0  0  0  0  0  0
   -0.1183   -0.2270   -0.5604 C   0  0  0  0  0  0  0  0  0  0  0  0
   -0.3329   -1.1991   -0.1294 H   0  0  0  0  0  0  0  0  0  0  0  0
   -0.1138   -0.1725   -1.5663 H   0  0  0  0  0  0  0  0  0  0  0  0
    1.7854   -0.0118    0.0398 Br  0  0  0  0  0  0  0  0  0  0  0  0
   -2.4641    0.9443   -0.1908 C   0  0  0  0  0  0  0  0  0  0  0  0
   -2.5639    0.9038   -1.3878 H   0  0  0  0  0  0  0  0  0  0  0  0
   -3.0423    1.9201    0.2084 H   0  0  0  0  0  0  0  0  0  0  0  0
   -3.2403   -0.2062    0.3205 C   0  0  0  0  0  0  0  0  0  0  0  0
   -4.3006    0.1906    0.1044 H   0  0  0  0  0  0  0  0  0  0  0  0
   -3.0456    0.2553    1.4801 H   0  0  0  0  0  0  0  0  0  0  0  0
   -2.7798   -1.3024   -0.0893 O   0  0  0  0  0  1  0  0  0  0  0  0
  1  2  1  0  0  0  0
  1  3  1  0  0  0  0
  4  5  1  0  0  0  0
  4  7  1  0  0  0  0
  4  1  1  0  0  0  0
  6  4  1  0  0  0  0
  8 10  1  0  0  0  0
  8  1  1  0  0  0  0
  8 11  1  0  0  0  0
  9  8  1  0  0  0  0
 11 13  1  0  0  0  0
 12 11  1  0  0  0  0
 14 11  1  0  0  0  0
M  END
$$$$
Title Card Required
 OpenBabel07152211483D

 14 13  0  0  0  0  0  0  0  0999 V2000
   -0.9768    0.9312    0.2514 C   0  0  0  0  0  0  0  0  0  0  0  0
   -0.4071    1.9120    0.4346 H   0  0  0  0  0  0  0  0  0  0  0  0
   -0.8351    0.5509    1.2936 H   0  0  0  0  0  0  0  0  0  0  0  0
   -0.1115   -0.2216   -0.5582 C   0  0  0  0  0  0  0  0  0  0  0  0
   -0.3689   -1.1940   -0.1120 H   0  0  0  0  0  0  0  0  0  0  0  0
   -0.1112   -0.2702   -1.6278 H   0  0  0  0  0  0  0  0  0  0  0  0
    1.7874   -0.0108    0.0404 Br  0  0  0  0  0  0  0  0  0  0  0  0
   -2.4663    0.9840   -0.2068 C   0  0  0  0  0  0  0  0  0  0  0  0
   -2.5602    0.8783   -1.3310 H   0  0  0  0  0  0  0  0  0  0  0  0
   -3.0365    1.9177    0.2236 H   0  0  0  0  0  0  0  0  0  0  0  0
   -3.2492   -0.2051    0.3299 C   0  0  0  0  0  0  0  0  0  0  0  0
   -4.2892    0.1975    0.1367 H   0  0  0  0  0  0  0  0  0  0  0  0
   -3.0622    0.1871    1.5087 H   0  0  0  0  0  0  0  0  0  0  0  0
   -2.7900   -1.3266   -0.0945 O   0  0  0  0  0  1  0  0  0  0  0  0
  1  2  1  0  0  0  0
  1  3  1  0  0  0  0
  4  5  1  0  0  0  0
  4  7  1  0  0  0  0
  4  1  1  0  0  0  0
  6  4  1  0  0  0  0
  8 10  1  0  0  0  0
  8  1  1  0  0  0  0
  8 11  1  0  0  0  0
  9  8  1  0  0  0  0
 11 13  1  0  0  0  0
 12 11  1  0  0  0  0
 14 11  1  0  0  0  0
M  END
$$$$
Title Card Required
 OpenBabel07152211483D

 14 13  0  0  0  0  0  0  0  0999 V2000
   -0.9667    0.9244    0.2533 C   0  0  0  0  0  0  0  0  0  0  0  0
   -0.4487    1.8617    0.4063 H   0  0  0  0  0  0  0  0  0  0  0  0
   -0.8405    0.5931    1.2654 H   0  0  0  0  0  0  0  0  0  0  0  0
   -0.1068   -0.2147   -0.5516 C   0  0  0  0  0  0  0  0  0  0  0  0
   -0.4080   -1.1839   -0.1037 H   0  0  0  0  0  0  0  0  0  0  0  0
   -0.1105   -0.3503   -1.7005 H   0  0  0  0  0  0  0  0  0  0  0  0
    1.7892   -0.0100    0.0408 Br  0  0  0  0  0  0  0  0  0  0  0  0
   -2.4678    1.0220   -0.2211 C   0  0  0  0  0  0  0  0  0  0  0  0
   -2.5510    0.8665   -1.2682 H   0  0  0  0  0  0  0  0  0  0  0  0
   -3.0092    1.8975    0.2187 H   0  0  0  0  0  0  0  0  0  0  0  0
   -3.2552   -0.2013    0.3407 C   0  0  0  0  0  0  0  0  0  0  0  0
   -4.2917    0.1878    0.1661 H   0  0  0  0  0  0  0  0  0  0  0  0
   -3.0917    0.1018    1.5214 H   0  0  0  0  0  0  0  0  0  0  0  0
   -2.7995   -1.3493   -0.0991 O   0  0  0  0  0  1  0  0  0  0  0  0
  1  2  1  0  0  0  0
  1  3  1  0  0  0  0
  4  5  1  0  0  0  0
  4  7  1  0  0  0  0
  4  1  1  0  0  0  0
  6  4  1  0  0  0  0
  8 10  1  0  0  0  0
  8  1  1  0  0  0  0
  8 11  1  0  0  0  0
  9  8  1  0  0  0  0
 11 13  1  0  0  0  0
 12 11  1  0  0  0  0
 14 11  1  0  0  0  0
M  END
$$$$
Title Card Required
 OpenBabel07152211483D

 14 13  0  0  0  0  0  0  0  0999 V2000
   -0.9564    0.9151    0.2519 C   0  0  0  0  0  0  0  0  0  0  0  0
   -0.4826    1.8268    0.3555 H   0  0  0  0  0  0  0  0  0  0  0  0
   -0.8594    0.6214    1.2560 H   0  0  0  0  0  0  0  0  0  0  0  0
   -0.1035   -0.2069   -0.5437 C   0  0  0  0  0  0  0  0  0  0  0  0
   -0.4509   -1.1647   -0.1021 H   0  0  0  0  0  0  0  0  0  0  0  0
   -0.1119   -0.4189   -1.7478 H   0  0  0  0  0  0  0  0  0  0  0  0
    1.7912   -0.0091    0.0412 Br  0  0  0  0  0  0  0  0  0  0  0  0
   -2.4677    1.0608   -0.2321 C   0  0  0  0  0  0  0  0  0  0  0  0
   -2.5410    0.8633   -1.2320 H   0  0  0  0  0  0  0  0  0  0  0  0
   -2.9705    1.8801    0.2019 H   0  0  0  0  0  0  0  0  0  0  0  0
   -3.2584   -0.1963    0.3538 C   0  0  0  0  0  0  0  0  0  0  0  0
   -4.3101    0.1642    0.1939 H   0  0  0  0  0  0  0  0  0  0  0  0
   -3.1328   -0.0026    1.5187 H   0  0  0  0  0  0  0  0  0  0  0  0
   -2.8102   -1.3726   -0.1036 O   0  0  0  0  0  1  0  0  0  0  0  0
  1  2  1  0  0  0  0
  1  3  1  0  0  0  0
  4  5  1  0  0  0  0
  4  7  1  0  0  0  0
  4  1  1  0  0  0  0
  6  4  1  0  0  0  0
  8 10  1  0  0  0  0
  8  1  1  0  0  0  0
  8 11  1  0  0  0  0
  9  8  1  0  0  0  0
 11 13  1  0  0  0  0
 12 11  1  0  0  0  0
 14 11  1  0  0  0  0
M  END
$$$$
Title Card Required
 OpenBabel07152211483D

 14 13  0  0  0  0  0  0  0  0999 V2000
   -0.9477    0.9017    0.2450 C   0  0  0  0  0  0  0  0  0  0  0  0
   -0.4886    1.8395    0.2822 H   0  0  0  0  0  0  0  0  0  0  0  0
   -0.8907    0.6284    1.2818 H   0  0  0  0  0  0  0  0  0  0  0  0
   -0.1021   -0.1988   -0.5363 C   0  0  0  0  0  0  0  0  0  0  0  0
   -0.4952   -1.1364   -0.1067 H   0  0  0  0  0  0  0  0  0  0  0  0
   -0.1157   -0.4657   -1.7420 H   0  0  0  0  0  0  0  0  0  0  0  0
    1.7933   -0.0082    0.0415 Br  0  0  0  0  0  0  0  0  0  0  0  0
   -2.4640    1.0969   -0.2374 C   0  0  0  0  0  0  0  0  0  0  0  0
   -2.5346    0.8655   -1.2561 H   0  0  0  0  0  0  0  0  0  0  0  0
   -2.9377    1.9005    0.1860 H   0  0  0  0  0  0  0  0  0  0  0  0
   -3.2587   -0.1916    0.3686 C   0  0  0  0  0  0  0  0  0  0  0  0
   -4.3438    0.1273    0.2179 H   0  0  0  0  0  0  0  0  0  0  0  0
   -3.1814   -0.1190    1.5030 H   0  0  0  0  0  0  0  0  0  0  0  0
   -2.8226   -1.3957   -0.1079 O   0  0  0  0  0  1  0  0  0  0  0  0
  1  2  1  0  0  0  0
  1  3  1  0  0  0  0
  4  5  1  0  0  0  0
  4  7  1  0  0  0  0
  4  1  1  0  0  0  0
  6  4  1  0  0  0  0
  8 10  1  0  0  0  0
  8  1  1  0  0  0  0
  8 11  1  0  0  0  0
  9  8  1  0  0  0  0
 11 13  1  0  0  0  0
 12 11  1  0  0  0  0
 14 11  1  0  0  0  0
M  END
$$$$
Title Card Required
 OpenBabel07152211483D

 14 13  0  0  0  0  0  0  0  0999 V2000
   -0.9417    0.8875    0.2344 C   0  0  0  0  0  0  0  0  0  0  0  0
   -0.4687    1.8881    0.1997 H   0  0  0  0  0  0  0  0  0  0  0  0
   -0.9272    0.6199    1.3236 H   0  0  0  0  0  0  0  0  0  0  0  0
   -0.1030   -0.1923   -0.5309 C   0  0  0  0  0  0  0  0  0  0  0  0
   -0.5335   -1.1084   -0.1128 H   0  0  0  0  0  0  0  0  0  0  0  0
   -0.1211   -0.4786   -1.6784 H   0  0  0  0  0  0  0  0  0  0  0  0
    1.7953   -0.0073    0.0418 Br  0  0  0  0  0  0  0  0  0  0  0  0
   -2.4567    1.1227   -0.2380 C   0  0  0  0  0  0  0  0  0  0  0  0
   -2.5332    0.8765   -1.3185 H   0  0  0  0  0  0  0  0  0  0  0  0
   -2.9243    1.9741    0.1816 H   0  0  0  0  0  0  0  0  0  0  0  0
   -3.2570   -0.1892    0.3815 C   0  0  0  0  0  0  0  0  0  0  0  0
   -4.3789    0.0842    0.2338 H   0  0  0  0  0  0  0  0  0  0  0  0
   -3.2251   -0.2225    1.4882 H   0  0  0  0  0  0  0  0  0  0  0  0
   -2.8351   -1.4149   -0.1116 O   0  0  0  0  0  1  0  0  0  0  0  0
  1  3  1  0  0  0  0
  2  1  1  0  0  0  0
  4  5  1  0  0  0  0
  4  7  1  0  0  0  0
  4  1  1  0  0  0  0
  6  4  1  0  0  0  0
  8 10  1  0  0  0  0
  8  1  1  0  0  0  0
  8 11  1  0  0  0  0
  9  8  1  0  0  0  0
 11 13  1  0  0  0  0
 12 11  1  0  0  0  0
 14 11  1  0  0  0  0
M  END
$$$$
Title Card Required
 OpenBabel07152211483D

 14 13  0  0  0  0  0  0  0  0999 V2000
   -0.9368    0.8753    0.2220 C   0  0  0  0  0  0  0  0  0  0  0  0
   -0.4402    1.9341    0.1125 H   0  0  0  0  0  0  0  0  0  0  0  0
   -0.9654    0.6085    1.3533 H   0  0  0  0  0  0  0  0  0  0  0  0
   -0.1061   -0.1870   -0.5261 C   0  0  0  0  0  0  0  0  0  0  0  0
   -0.5670   -1.0874   -0.1151 H   0  0  0  0  0  0  0  0  0  0  0  0
   -0.1275   -0.4597   -1.5755 H   0  0  0  0  0  0  0  0  0  0  0  0
    1.7973   -0.0065    0.0420 Br  0  0  0  0  0  0  0  0  0  0  0  0
   -2.4473    1.1402   -0.2366 C   0  0  0  0  0  0  0  0  0  0  0  0
   -2.5348    0.9040   -1.3778 H   0  0  0  0  0  0  0  0  0  0  0  0
   -2.9161    2.0796    0.1781 H   0  0  0  0  0  0  0  0  0  0  0  0
   -3.2550   -0.1899    0.3918 C   0  0  0  0  0  0  0  0  0  0  0  0
   -4.4056    0.0370    0.2428 H   0  0  0  0  0  0  0  0  0  0  0  0
   -3.2608   -0.3100    1.4867 H   0  0  0  0  0  0  0  0  0  0  0  0
   -2.8483   -1.4309   -0.1149 O   0  0  0  0  0  1  0  0  0  0  0  0
  1  3  1  0  0  0  0
  2  1  1  0  0  0  0
  4  5  1  0  0  0  0
  4  7  1  0  0  0  0
  4  1  1  0  0  0  0
  6  4  1  0  0  0  0
  8 10  1  0  0  0  0
  8  1  1  0  0  0  0
  8 11  1  0  0  0  0
  9  8  1  0  0  0  0
 11 13  1  0  0  0  0
 12 11  1  0  0  0  0
 14 11  1  0  0  0  0
M  END
$$$$
Title Card Required
 OpenBabel07152211483D

 14 13  0  0  0  0  0  0  0  0999 V2000
   -0.9319    0.8676    0.2070 C   0  0  0  0  0  0  0  0  0  0  0  0
   -0.4138    1.9466    0.0192 H   0  0  0  0  0  0  0  0  0  0  0  0
   -1.0035    0.6036    1.3460 H   0  0  0  0  0  0  0  0  0  0  0  0
   -0.1121   -0.1820   -0.5158 C   0  0  0  0  0  0  0  0  0  0  0  0
   -0.5974   -1.0792   -0.1080 H   0  0  0  0  0  0  0  0  0  0  0  0
   -0.1362   -0.4107   -1.4841 H   0  0  0  0  0  0  0  0  0  0  0  0
    1.7995   -0.0056    0.0422 Br  0  0  0  0  0  0  0  0  0  0  0  0
   -2.4362    1.1523   -0.2338 C   0  0  0  0  0  0  0  0  0  0  0  0
   -2.5379    0.9609   -1.4039 H   0  0  0  0  0  0  0  0  0  0  0  0
   -2.8892    2.1920    0.1575 H   0  0  0  0  0  0  0  0  0  0  0  0
   -3.2537   -0.1958    0.3994 C   0  0  0  0  0  0  0  0  0  0  0  0
   -4.4144   -0.0164    0.2445 H   0  0  0  0  0  0  0  0  0  0  0  0
   -3.2868   -0.3813    1.5062 H   0  0  0  0  0  0  0  0  0  0  0  0
   -2.8641   -1.4450   -0.1182 O   0  0  0  0  0  1  0  0  0  0  0  0
  1  3  1  0  0  0  0
  2  1  1  0  0  0  0
  4  5  1  0  0  0  0
  4  7  1  0  0  0  0
  4  1  1  0  0  0  0
  6  4  1  0  0  0  0
  8 10  1  0  0  0  0
  8  1  1  0  0  0  0
  8 11  1  0  0  0  0
  9  8  1  0  0  0  0
 11 13  1  0  0  0  0
 12 11  1  0  0  0  0
 14 11  1  0  0  0  0
M  END
$$$$
Title Card Required
 OpenBabel07152211483D

 14 13  0  0  0  0  0  0  0  0999 V2000
   -0.9271    0.8699    0.1903 C   0  0  0  0  0  0  0  0  0  0  0  0
   -0.4039    1.8932   -0.0553 H   0  0  0  0  0  0  0  0  0  0  0  0
   -1.0280    0.6157    1.2816 H   0  0  0  0  0  0  0  0  0  0  0  0
   -0.1216   -0.1777   -0.4912 C   0  0  0  0  0  0  0  0  0  0  0  0
   -0.6150   -1.0892   -0.0903 H   0  0  0  0  0  0  0  0  0  0  0  0
   -0.1466   -0.3449   -1.5169 H   0  0  0  0  0  0  0  0  0  0  0  0
    1.8019   -0.0046    0.0423 Br  0  0  0  0  0  0  0  0  0  0  0  0
   -2.4261    1.1584   -0.2299 C   0  0  0  0  0  0  0  0  0  0  0  0
   -2.5409    1.0473   -1.3644 H   0  0  0  0  0  0  0  0  0  0  0  0
   -2.8239    2.2545    0.1077 H   0  0  0  0  0  0  0  0  0  0  0  0
   -3.2550   -0.2094    0.4029 C   0  0  0  0  0  0  0  0  0  0  0  0
   -4.3920   -0.0631    0.2366 H   0  0  0  0  0  0  0  0  0  0  0  0
   -3.2920   -0.4112    1.5391 H   0  0  0  0  0  0  0  0  0  0  0  0
   -2.8811   -1.4542   -0.1215 O   0  0  0  0  0  1  0  0  0  0  0  0
  1  3  1  0  0  0  0
  2  1  1  0  0  0  0
  4  5  1  0  0  0  0
  4  7  1  0  0  0  0
  4  1  1  0  0  0  0
  6  4  1  0  0  0  0
  8 10  1  0  0  0  0
  8  1  1  0  0  0  0
  8 11  1  0  0  0  0
  9  8  1  0  0  0  0
 11 13  1  0  0  0  0
 12 11  1  0  0  0  0
 14 11  1  0  0  0  0
M  END
$$$$
Title Card Required
 OpenBabel07152211483D

 14 13  0  0  0  0  0  0  0  0999 V2000
   -0.9243    0.8803    0.1754 C   0  0  0  0  0  0  0  0  0  0  0  0
   -0.4083    1.8114   -0.0881 H   0  0  0  0  0  0  0  0  0  0  0  0
   -1.0307    0.6391    1.2106 H   0  0  0  0  0  0  0  0  0  0  0  0
   -0.1317   -0.1775   -0.4650 C   0  0  0  0  0  0  0  0  0  0  0  0
   -0.6122   -1.1063   -0.0755 H   0  0  0  0  0  0  0  0  0  0  0  0
   -0.1541   -0.2777   -1.6049 H   0  0  0  0  0  0  0  0  0  0  0  0
    1.8038   -0.0040    0.0423 Br  0  0  0  0  0  0  0  0  0  0  0  0
   -2.4196    1.1594   -0.2253 C   0  0  0  0  0  0  0  0  0  0  0  0
   -2.5439    1.1248   -1.2988 H   0  0  0  0  0  0  0  0  0  0  0  0
   -2.7444    2.2459    0.0527 H   0  0  0  0  0  0  0  0  0  0  0  0
   -3.2582   -0.2267    0.4031 C   0  0  0  0  0  0  0  0  0  0  0  0
   -4.3567   -0.0853    0.2236 H   0  0  0  0  0  0  0  0  0  0  0  0
   -3.2770   -0.3939    1.5601 H   0  0  0  0  0  0  0  0  0  0  0  0
   -2.8946   -1.4568   -0.1238 O   0  0  0  0  0  1  0  0  0  0  0  0
  1  3  1  0  0  0  0
  2  1  1  0  0  0  0
  4  5  1  0  0  0  0
  4  7  1  0  0  0  0
  4  1  1  0  0  0  0
  6  4  1  0  0  0  0
  8 10  1  0  0  0  0
  8  1  1  0  0  0  0
  8 11  1  0  0  0  0
  9  8  1  0  0  0  0
 11 13  1  0  0  0  0
 12 11  1  0  0  0  0
 14 11  1  0  0  0  0
M  END
$$$$
Title Card Required
 OpenBabel07152211483D

 14 13  0  0  0  0  0  0  0  0999 V2000
   -0.9240    0.8957    0.1578 C   0  0  0  0  0  0  0  0  0  0  0  0
   -0.4049    1.7417   -0.1018 H   0  0  0  0  0  0  0  0  0  0  0  0
   -1.0188    0.6698    1.1686 H   0  0  0  0  0  0  0  0  0  0  0  0
   -0.1437   -0.1817   -0.4409 C   0  0  0  0  0  0  0  0  0  0  0  0
   -0.5924   -1.1266   -0.0671 H   0  0  0  0  0  0  0  0  0  0  0  0
   -0.1596   -0.1994   -1.6682 H   0  0  0  0  0  0  0  0  0  0  0  0
    1.8055   -0.0033    0.0423 Br  0  0  0  0  0  0  0  0  0  0  0  0
   -2.4140    1.1568   -0.2174 C   0  0  0  0  0  0  0  0  0  0  0  0
   -2.5508    1.1943   -1.2506 H   0  0  0  0  0  0  0  0  0  0  0  0
   -2.6543    2.1995    0.0023 H   0  0  0  0  0  0  0  0  0  0  0  0
   -3.2619   -0.2491    0.4019 C   0  0  0  0  0  0  0  0  0  0  0  0
   -4.3250   -0.0882    0.2055 H   0  0  0  0  0  0  0  0  0  0  0  0
   -3.2463   -0.3406    1.5669 H   0  0  0  0  0  0  0  0  0  0  0  0
   -2.9071   -1.4553   -0.1259 O   0  0  0  0  0  1  0  0  0  0  0  0
  1  3  1  0  0  0  0
  2  1  1  0  0  0  0
  4  5  1  0  0  0  0
  4  7  1  0  0  0  0
  4  1  1  0  0  0  0
  6  4  1  0  0  0  0
  8 10  1  0  0  0  0
  8  1  1  0  0  0  0
  8 11  1  0  0  0  0
  9  8  1  0  0  0  0
 11 13  1  0  0  0  0
 12 11  1  0  0  0  0
 14 11  1  0  0  0  0
M  END
$$$$
Title Card Required
 OpenBabel07152211483D

 14 13  0  0  0  0  0  0  0  0999 V2000
   -0.9282    0.9127    0.1369 C   0  0  0  0  0  0  0  0  0  0  0  0
   -0.3652    1.7363   -0.1114 H   0  0  0  0  0  0  0  0  0  0  0  0
   -0.9923    0.7072    1.1835 H   0  0  0  0  0  0  0  0  0  0  0  0
   -0.1576   -0.1907   -0.4225 C   0  0  0  0  0  0  0  0  0  0  0  0
   -0.5566   -1.1506   -0.0678 H   0  0  0  0  0  0  0  0  0  0  0  0
   -0.1632   -0.1158   -1.6649 H   0  0  0  0  0  0  0  0  0  0  0  0
    1.8073   -0.0027    0.0423 Br  0  0  0  0  0  0  0  0  0  0  0  0
   -2.4075    1.1474   -0.2050 C   0  0  0  0  0  0  0  0  0  0  0  0
   -2.5651    1.2490   -1.2572 H   0  0  0  0  0  0  0  0  0  0  0  0
   -2.5671    2.1584   -0.0214 H   0  0  0  0  0  0  0  0  0  0  0  0
   -3.2649   -0.2767    0.3992 C   0  0  0  0  0  0  0  0  0  0  0  0
   -4.3151   -0.0675    0.1815 H   0  0  0  0  0  0  0  0  0  0  0  0
   -3.2004   -0.2537    1.5571 H   0  0  0  0  0  0  0  0  0  0  0  0
   -2.9191   -1.4499   -0.1277 O   0  0  0  0  0  1  0  0  0  0  0  0
  1  3  1  0  0  0  0
  2  1  1  0  0  0  0
  4  5  1  0  0  0  0
  4  7  1  0  0  0  0
  4  1  1  0  0  0  0
  6  4  1  0  0  0  0
  8 10  1  0  0  0  0
  8  1  1  0  0  0  0
  8 11  1  0  0  0  0
  9  8  1  0  0  0  0
 11 13  1  0  0  0  0
 12 11  1  0  0  0  0
 14 11  1  0  0  0  0
M  END
$$$$
Title Card Required
 OpenBabel07152211483D

 14 13  0  0  0  0  0  0  0  0999 V2000
   -0.9353    0.9271    0.1188 C   0  0  0  0  0  0  0  0  0  0  0  0
   -0.3016    1.7900   -0.1198 H   0  0  0  0  0  0  0  0  0  0  0  0
   -0.9574    0.7491    1.2287 H   0  0  0  0  0  0  0  0  0  0  0  0
   -0.1702   -0.2011   -0.4137 C   0  0  0  0  0  0  0  0  0  0  0  0
   -0.5178   -1.1764   -0.0754 H   0  0  0  0  0  0  0  0  0  0  0  0
   -0.1646   -0.0525   -1.5928 H   0  0  0  0  0  0  0  0  0  0  0  0
    1.8087   -0.0023    0.0423 Br  0  0  0  0  0  0  0  0  0  0  0  0
   -2.4009    1.1316   -0.1936 C   0  0  0  0  0  0  0  0  0  0  0  0
   -2.5803    1.2764   -1.2988 H   0  0  0  0  0  0  0  0  0  0  0  0
   -2.5095    2.1665   -0.0025 H   0  0  0  0  0  0  0  0  0  0  0  0
   -3.2666   -0.3027    0.3957 C   0  0  0  0  0  0  0  0  0  0  0  0
   -4.3285   -0.0308    0.1596 H   0  0  0  0  0  0  0  0  0  0  0  0
   -3.1523   -0.1616    1.5366 H   0  0  0  0  0  0  0  0  0  0  0  0
   -2.9286   -1.4427   -0.1289 O   0  0  0  0  0  1  0  0  0  0  0  0
  1  3  1  0  0  0  0
  2  1  1  0  0  0  0
  4  5  1  0  0  0  0
  4  7  1  0  0  0  0
  4  1  1  0  0  0  0
  6  4  1  0  0  0  0
  8 10  1  0  0  0  0
  8  1  1  0  0  0  0
  8 11  1  0  0  0  0
  9  8  1  0  0  0  0
 11 13  1  0  0  0  0
 12 11  1  0  0  0  0
 14 11  1  0  0  0  0
M  END
$$$$
Title Card Required
 OpenBabel07152211483D

 14 13  0  0  0  0  0  0  0  0999 V2000
   -0.9416    0.9413    0.1052 C   0  0  0  0  0  0  0  0  0  0  0  0
   -0.2446    1.8532   -0.1229 H   0  0  0  0  0  0  0  0  0  0  0  0
   -0.9171    0.7999    1.2675 H   0  0  0  0  0  0  0  0  0  0  0  0
   -0.1815   -0.2115   -0.4111 C   0  0  0  0  0  0  0  0  0  0  0  0
   -0.4808   -1.2054   -0.0863 H   0  0  0  0  0  0  0  0  0  0  0  0
   -0.1642   -0.0109   -1.4826 H   0  0  0  0  0  0  0  0  0  0  0  0
    1.8100   -0.0019    0.0423 Br  0  0  0  0  0  0  0  0  0  0  0  0
   -2.3946    1.1127   -0.1859 C   0  0  0  0  0  0  0  0  0  0  0  0
   -2.5910    1.2816   -1.3366 H   0  0  0  0  0  0  0  0  0  0  0  0
   -2.4763    2.2023    0.0476 H   0  0  0  0  0  0  0  0  0  0  0  0
   -3.2686   -0.3258    0.3916 C   0  0  0  0  0  0  0  0  0  0  0  0
   -4.3484    0.0130    0.1437 H   0  0  0  0  0  0  0  0  0  0  0  0
   -3.1050   -0.0743    1.5101 H   0  0  0  0  0  0  0  0  0  0  0  0
   -2.9363   -1.4350   -0.1299 O   0  0  0  0  0  1  0  0  0  0  0  0
  1  3  1  0  0  0  0
  2  1  1  0  0  0  0
  4  5  1  0  0  0  0
  4  7  1  0  0  0  0
  4  1  1  0  0  0  0
  6  4  1  0  0  0  0
  8 10  1  0  0  0  0
  8  1  1  0  0  0  0
  8 11  1  0  0  0  0
  9  8  1  0  0  0  0
 11 13  1  0  0  0  0
 12 11  1  0  0  0  0
 14 11  1  0  0  0  0
M  END
$$$$
Title Card Required
 OpenBabel07152211483D

 14 13  0  0  0  0  0  0  0  0999 V2000
   -0.9451    0.9595    0.0961 C   0  0  0  0  0  0  0  0  0  0  0  0
   -0.2108    1.9022   -0.1196 H   0  0  0  0  0  0  0  0  0  0  0  0
   -0.8689    0.8704    1.2817 H   0  0  0  0  0  0  0  0  0  0  0  0
   -0.1931   -0.2231   -0.4099 C   0  0  0  0  0  0  0  0  0  0  0  0
   -0.4438   -1.2403   -0.1017 H   0  0  0  0  0  0  0  0  0  0  0  0
   -0.1595    0.0161   -1.3771 H   0  0  0  0  0  0  0  0  0  0  0  0
    1.8112   -0.0015    0.0423 Br  0  0  0  0  0  0  0  0  0  0  0  0
   -2.3885    1.0914   -0.1827 C   0  0  0  0  0  0  0  0  0  0  0  0
   -2.5934    1.2646   -1.3499 H   0  0  0  0  0  0  0  0  0  0  0  0
   -2.4649    2.2333    0.1274 H   0  0  0  0  0  0  0  0  0  0  0  0
   -3.2724   -0.3466    0.3864 C   0  0  0  0  0  0  0  0  0  0  0  0
   -4.3629    0.0623    0.1365 H   0  0  0  0  0  0  0  0  0  0  0  0
   -3.0547    0.0097    1.4755 H   0  0  0  0  0  0  0  0  0  0  0  0
   -2.9435   -1.4266   -0.1309 O   0  0  0  0  0  1  0  0  0  0  0  0
  1  3  1  0  0  0  0
  2  1  1  0  0  0  0
  4  5  1  0  0  0  0
  4  7  1  0  0  0  0
  4  1  1  0  0  0  0
  6  4  1  0  0  0  0
  8  1  1  0  0  0  0
  8 10  1  0  0  0  0
  8 11  1  0  0  0  0
  9  8  1  0  0  0  0
 11 13  1  0  0  0  0
 12 11  1  0  0  0  0
 14 11  1  0  0  0  0
M  END
$$$$
Title Card Required
 OpenBabel07152211483D

 14 13  0  0  0  0  0  0  0  0999 V2000
   -0.9411    0.9847    0.0958 C   0  0  0  0  0  0  0  0  0  0  0  0
   -0.2283    1.9067   -0.1109 H   0  0  0  0  0  0  0  0  0  0  0  0
   -0.8165    0.9667    1.2448 H   0  0  0  0  0  0  0  0  0  0  0  0
   -0.2051   -0.2377   -0.4015 C   0  0  0  0  0  0  0  0  0  0  0  0
   -0.4112   -1.2762   -0.1245 H   0  0  0  0  0  0  0  0  0  0  0  0
   -0.1427    0.0362   -1.3866 H   0  0  0  0  0  0  0  0  0  0  0  0
    1.8126   -0.0011    0.0423 Br  0  0  0  0  0  0  0  0  0  0  0  0
   -2.3837    1.0708   -0.1872 C   0  0  0  0  0  0  0  0  0  0  0  0
   -2.5806    1.2189   -1.3107 H   0  0  0  0  0  0  0  0  0  0  0  0
   -2.4884    2.2114    0.2328 H   0  0  0  0  0  0  0  0  0  0  0  0
   -3.2802   -0.3591    0.3809 C   0  0  0  0  0  0  0  0  0  0  0  0
   -4.3561    0.1080    0.1466 H   0  0  0  0  0  0  0  0  0  0  0  0
   -3.0061    0.0719    1.4331 H   0  0  0  0  0  0  0  0  0  0  0  0
   -2.9499   -1.4196   -0.1328 O   0  0  0  0  0  1  0  0  0  0  0  0
  1  3  1  0  0  0  0
  2  1  1  0  0  0  0
  4  5  1  0  0  0  0
  4  7  1  0  0  0  0
  4  1  1  0  0  0  0
  6  4  1  0  0  0  0
  8  1  1  0  0  0  0
  8 10  1  0  0  0  0
  8 11  1  0  0  0  0
  9  8  1  0  0  0  0
 11 13  1  0  0  0  0
 12 11  1  0  0  0  0
 14 11  1  0  0  0  0
M  END
$$$$
Title Card Required
 OpenBabel07152211483D

 14 13  0  0  0  0  0  0  0  0999 V2000
   -0.9306    1.0071    0.1037 C   0  0  0  0  0  0  0  0  0  0  0  0
   -0.2855    1.8705   -0.1111 H   0  0  0  0  0  0  0  0  0  0  0  0
   -0.7825    1.0490    1.1843 H   0  0  0  0  0  0  0  0  0  0  0  0
   -0.2128   -0.2487   -0.3904 C   0  0  0  0  0  0  0  0  0  0  0  0
   -0.3980   -1.2966   -0.1458 H   0  0  0  0  0  0  0  0  0  0  0  0
   -0.1219    0.0332   -1.4872 H   0  0  0  0  0  0  0  0  0  0  0  0
    1.8135   -0.0008    0.0424 Br  0  0  0  0  0  0  0  0  0  0  0  0
   -2.3819    1.0591   -0.1954 C   0  0  0  0  0  0  0  0  0  0  0  0
   -2.5608    1.1685   -1.2503 H   0  0  0  0  0  0  0  0  0  0  0  0
   -2.5399    2.1272    0.3119 H   0  0  0  0  0  0  0  0  0  0  0  0
   -3.2891   -0.3553    0.3778 C   0  0  0  0  0  0  0  0  0  0  0  0
   -4.3292    0.1273    0.1704 H   0  0  0  0  0  0  0  0  0  0  0  0
   -2.9810    0.0796    1.4047 H   0  0  0  0  0  0  0  0  0  0  0  0
   -2.9534   -1.4181   -0.1357 O   0  0  0  0  0  1  0  0  0  0  0  0
  1  3  1  0  0  0  0
  2  1  1  0  0  0  0
  4  5  1  0  0  0  0
  4  7  1  0  0  0  0
  4  1  1  0  0  0  0
  6  4  1  0  0  0  0
  8  1  1  0  0  0  0
  8 10  1  0  0  0  0
  8 11  1  0  0  0  0
  9  8  1  0  0  0  0
 11 13  1  0  0  0  0
 12 11  1  0  0  0  0
 14 11  1  0  0  0  0
M  END
$$$$
Title Card Required
 OpenBabel07152211483D

 14 13  0  0  0  0  0  0  0  0999 V2000
   -0.9173    1.0252    0.1154 C   0  0  0  0  0  0  0  0  0  0  0  0
   -0.3440    1.8417   -0.1386 H   0  0  0  0  0  0  0  0  0  0  0  0
   -0.7590    1.1204    1.1473 H   0  0  0  0  0  0  0  0  0  0  0  0
   -0.2170   -0.2550   -0.3835 C   0  0  0  0  0  0  0  0  0  0  0  0
   -0.4008   -1.3076   -0.1638 H   0  0  0  0  0  0  0  0  0  0  0  0
   -0.1076   -0.0074   -1.5751 H   0  0  0  0  0  0  0  0  0  0  0  0
    1.8143   -0.0006    0.0424 Br  0  0  0  0  0  0  0  0  0  0  0  0
   -2.3817    1.0517   -0.2018 C   0  0  0  0  0  0  0  0  0  0  0  0
   -2.5449    1.1226   -1.2209 H   0  0  0  0  0  0  0  0  0  0  0  0
   -2.6148    1.9998    0.3675 H   0  0  0  0  0  0  0  0  0  0  0  0
   -3.2976   -0.3388    0.3760 C   0  0  0  0  0  0  0  0  0  0  0  0
   -4.2978    0.1295    0.2020 H   0  0  0  0  0  0  0  0  0  0  0  0
   -2.9729    0.0465    1.3947 H   0  0  0  0  0  0  0  0  0  0  0  0
   -2.9552   -1.4212   -0.1398 O   0  0  0  0  0  1  0  0  0  0  0  0
  1  3  1  0  0  0  0
  2  1  1  0  0  0  0
  4  5  1  0  0  0  0
  4  7  1  0  0  0  0
  4  1  1  0  0  0  0
  6  4  1  0  0  0  0
  8  1  1  0  0  0  0
  8 10  1  0  0  0  0
  8 11  1  0  0  0  0
  9  8  1  0  0  0  0
 11 13  1  0  0  0  0
 12 11  1  0  0  0  0
 14 11  1  0  0  0  0
M  END
$$$$
Title Card Required
 OpenBabel07152211483D

 14 13  0  0  0  0  0  0  0  0999 V2000
   -0.9052    1.0349    0.1278 C   0  0  0  0  0  0  0  0  0  0  0  0
   -0.3700    1.8629   -0.2105 H   0  0  0  0  0  0  0  0  0  0  0  0
   -0.7410    1.1791    1.1682 H   0  0  0  0  0  0  0  0  0  0  0  0
   -0.2175   -0.2557   -0.3839 C   0  0  0  0  0  0  0  0  0  0  0  0
   -0.4198   -1.3100   -0.1741 H   0  0  0  0  0  0  0  0  0  0  0  0
   -0.1064   -0.0834   -1.6026 H   0  0  0  0  0  0  0  0  0  0  0  0
    1.8149   -0.0005    0.0425 Br  0  0  0  0  0  0  0  0  0  0  0  0
   -2.3821    1.0450   -0.2030 C   0  0  0  0  0  0  0  0  0  0  0  0
   -2.5399    1.0885   -1.2539 H   0  0  0  0  0  0  0  0  0  0  0  0
   -2.7123    1.8644    0.4053 H   0  0  0  0  0  0  0  0  0  0  0  0
   -3.3020   -0.3135    0.3742 C   0  0  0  0  0  0  0  0  0  0  0  0
   -4.2853    0.1248    0.2348 H   0  0  0  0  0  0  0  0  0  0  0  0
   -2.9792   -0.0169    1.4112 H   0  0  0  0  0  0  0  0  0  0  0  0
   -2.9563   -1.4275   -0.1447 O   0  0  0  0  0  1  0  0  0  0  0  0
  1  3  1  0  0  0  0
  2  1  1  0  0  0  0
  4  5  1  0  0  0  0
  4  7  1  0  0  0  0
  4  1  1  0  0  0  0
  6  4  1  0  0  0  0
  8  1  1  0  0  0  0
  8 11  1  0  0  0  0
  8 10  1  0  0  0  0
  9  8  1  0  0  0  0
 11 13  1  0  0  0  0
 12 11  1  0  0  0  0
 14 11  1  0  0  0  0
M  END
$$$$
Title Card Required
 OpenBabel07152211483D

 14 13  0  0  0  0  0  0  0  0999 V2000
   -0.8960    1.0376    0.1386 C   0  0  0  0  0  0  0  0  0  0  0  0
   -0.3710    1.9127   -0.3035 H   0  0  0  0  0  0  0  0  0  0  0  0
   -0.7282    1.2197    1.2209 H   0  0  0  0  0  0  0  0  0  0  0  0
   -0.2149   -0.2526   -0.3903 C   0  0  0  0  0  0  0  0  0  0  0  0
   -0.4488   -1.3035   -0.1731 H   0  0  0  0  0  0  0  0  0  0  0  0
   -0.1171   -0.1680   -1.5683 H   0  0  0  0  0  0  0  0  0  0  0  0
    1.8154   -0.0005    0.0426 Br  0  0  0  0  0  0  0  0  0  0  0  0
   -2.3829    1.0369   -0.2017 C   0  0  0  0  0  0  0  0  0  0  0  0
   -2.5422    1.0691   -1.3106 H   0  0  0  0  0  0  0  0  0  0  0  0
   -2.8176    1.7693    0.4347 H   0  0  0  0  0  0  0  0  0  0  0  0
   -3.3002   -0.2877    0.3717 C   0  0  0  0  0  0  0  0  0  0  0  0
   -4.3040    0.1231    0.2606 H   0  0  0  0  0  0  0  0  0  0  0  0
   -2.9948   -0.0874    1.4476 H   0  0  0  0  0  0  0  0  0  0  0  0
   -2.9574   -1.4341   -0.1493 O   0  0  0  0  0  1  0  0  0  0  0  0
  1  3  1  0  0  0  0
  2  1  1  0  0  0  0
  4  5  1  0  0  0  0
  4  7  1  0  0  0  0
  4  1  1  0  0  0  0
  6  4  1  0  0  0  0
  8  1  1  0  0  0  0
  8 11  1  0  0  0  0
  8 10  1  0  0  0  0
  9  8  1  0  0  0  0
 11 13  1  0  0  0  0
 12 11  1  0  0  0  0
 14 11  1  0  0  0  0
M  END
$$$$
Title Card Required
 OpenBabel07152211483D

 14 13  0  0  0  0  0  0  0  0999 V2000
   -0.8875    1.0385    0.1485 C   0  0  0  0  0  0  0  0  0  0  0  0
   -0.3722    1.9546   -0.3962 H   0  0  0  0  0  0  0  0  0  0  0  0
   -0.7189    1.2472    1.2707 H   0  0  0  0  0  0  0  0  0  0  0  0
   -0.2102   -0.2475   -0.4003 C   0  0  0  0  0  0  0  0  0  0  0  0
   -0.4851   -1.2880   -0.1602 H   0  0  0  0  0  0  0  0  0  0  0  0
   -0.1356   -0.2522   -1.4979 H   0  0  0  0  0  0  0  0  0  0  0  0
    1.8157   -0.0006    0.0427 Br  0  0  0  0  0  0  0  0  0  0  0  0
   -2.3846    1.0264   -0.2005 C   0  0  0  0  0  0  0  0  0  0  0  0
   -2.5461    1.0589   -1.3552 H   0  0  0  0  0  0  0  0  0  0  0  0
   -2.9297    1.7088    0.4602 H   0  0  0  0  0  0  0  0  0  0  0  0
   -3.2928   -0.2626    0.3682 C   0  0  0  0  0  0  0  0  0  0  0  0
   -4.3436    0.1247    0.2821 H   0  0  0  0  0  0  0  0  0  0  0  0
   -3.0181   -0.1594    1.4928 H   0  0  0  0  0  0  0  0  0  0  0  0
   -2.9589   -1.4403   -0.1536 O   0  0  0  0  0  1  0  0  0  0  0  0
  1  3  1  0  0  0  0
  2  1  1  0  0  0  0
  4  5  1  0  0  0  0
  4  7  1  0  0  0  0
  4  1  1  0  0  0  0
  6  4  1  0  0  0  0
  8  1  1  0  0  0  0
  8 11  1  0  0  0  0
  8 10  1  0  0  0  0
  9  8  1  0  0  0  0
 11 13  1  0  0  0  0
 12 11  1  0  0  0  0
 14 11  1  0  0  0  0
M  END
$$$$
Title Card Required
 OpenBabel07152211483D

 14 13  0  0  0  0  0  0  0  0999 V2000
   -0.8780    1.0403    0.1585 C   0  0  0  0  0  0  0  0  0  0  0  0
   -0.3866    1.9703   -0.4787 H   0  0  0  0  0  0  0  0  0  0  0  0
   -0.7122    1.2629    1.2990 H   0  0  0  0  0  0  0  0  0  0  0  0
   -0.2034   -0.2408   -0.4108 C   0  0  0  0  0  0  0  0  0  0  0  0
   -0.5310   -1.2600   -0.1298 H   0  0  0  0  0  0  0  0  0  0  0  0
   -0.1605   -0.3370   -1.4250 H   0  0  0  0  0  0  0  0  0  0  0  0
    1.8159   -0.0008    0.0427 Br  0  0  0  0  0  0  0  0  0  0  0  0
   -2.3887    1.0128   -0.1992 C   0  0  0  0  0  0  0  0  0  0  0  0
   -2.5493    1.0549   -1.3704 H   0  0  0  0  0  0  0  0  0  0  0  0
   -3.0463    1.6699    0.4730 H   0  0  0  0  0  0  0  0  0  0  0  0
   -3.2796   -0.2376    0.3634 C   0  0  0  0  0  0  0  0  0  0  0  0
   -4.3914    0.1265    0.3022 H   0  0  0  0  0  0  0  0  0  0  0  0
   -3.0524   -0.2339    1.5386 H   0  0  0  0  0  0  0  0  0  0  0  0
   -2.9612   -1.4455   -0.1579 O   0  0  0  0  0  1  0  0  0  0  0  0
  1  3  1  0  0  0  0
  2  1  1  0  0  0  0
  4  5  1  0  0  0  0
  4  7  1  0  0  0  0
  4  1  1  0  0  0  0
  6  4  1  0  0  0  0
  8  1  1  0  0  0  0
  8 11  1  0  0  0  0
  8 10  1  0  0  0  0
  9  8  1  0  0  0  0
 11 13  1  0  0  0  0
 12 11  1  0  0  0  0
 14 11  1  0  0  0  0
M  END
$$$$
Title Card Required
 OpenBabel07152211483D

 14 13  0  0  0  0  0  0  0  0999 V2000
   -0.8669    1.0451    0.1675 C   0  0  0  0  0  0  0  0  0  0  0  0
   -0.4255    1.9392   -0.5320 H   0  0  0  0  0  0  0  0  0  0  0  0
   -0.7073    1.2623    1.2841 H   0  0  0  0  0  0  0  0  0  0  0  0
   -0.1940   -0.2317   -0.4160 C   0  0  0  0  0  0  0  0  0  0  0  0
   -0.5883   -1.2121   -0.0697 H   0  0  0  0  0  0  0  0  0  0  0  0
   -0.1907   -0.4240   -1.4176 H   0  0  0  0  0  0  0  0  0  0  0  0
    1.8159   -0.0012    0.0427 Br  0  0  0  0  0  0  0  0  0  0  0  0
   -2.3981    0.9955   -0.1963 C   0  0  0  0  0  0  0  0  0  0  0  0
   -2.5507    1.0566   -1.3353 H   0  0  0  0  0  0  0  0  0  0  0  0
   -3.1495    1.6482    0.4526 H   0  0  0  0  0  0  0  0  0  0  0  0
   -3.2596   -0.2138    0.3574 C   0  0  0  0  0  0  0  0  0  0  0  0
   -4.4272    0.1248    0.3209 H   0  0  0  0  0  0  0  0  0  0  0  0
   -3.1020   -0.3045    1.5695 H   0  0  0  0  0  0  0  0  0  0  0  0
   -2.9650   -1.4487   -0.1625 O   0  0  0  0  0  1  0  0  0  0  0  0
  1  3  1  0  0  0  0
  2  1  1  0  0  0  0
  4  5  1  0  0  0  0
  4  7  1  0  0  0  0
  4  1  1  0  0  0  0
  6  4  1  0  0  0  0
  8  1  1  0  0  0  0
  8 11  1  0  0  0  0
  8 10  1  0  0  0  0
  9  8  1  0  0  0  0
 11 13  1  0  0  0  0
 12 11  1  0  0  0  0
 14 11  1  0  0  0  0
M  END
$$$$
Title Card Required
 OpenBabel07152211483D

 14 13  0  0  0  0  0  0  0  0999 V2000
   -0.8574    1.0524    0.1709 C   0  0  0  0  0  0  0  0  0  0  0  0
   -0.4818    1.8660   -0.5307 H   0  0  0  0  0  0  0  0  0  0  0  0
   -0.7011    1.2460    1.2312 H   0  0  0  0  0  0  0  0  0  0  0  0
   -0.1843   -0.2223   -0.4125 C   0  0  0  0  0  0  0  0  0  0  0  0
   -0.6403   -1.1511    0.0108 H   0  0  0  0  0  0  0  0  0  0  0  0
   -0.2206   -0.4927   -1.4896 H   0  0  0  0  0  0  0  0  0  0  0  0
    1.8157   -0.0017    0.0427 Br  0  0  0  0  0  0  0  0  0  0  0  0
   -2.4124    0.9787   -0.1899 C   0  0  0  0  0  0  0  0  0  0  0  0
   -2.5513    1.0610   -1.2634 H   0  0  0  0  0  0  0  0  0  0  0  0
   -3.1950    1.6470    0.3916 H   0  0  0  0  0  0  0  0  0  0  0  0
   -3.2383   -0.1998    0.3522 C   0  0  0  0  0  0  0  0  0  0  0  0
   -4.4237    0.1189    0.3314 H   0  0  0  0  0  0  0  0  0  0  0  0
   -3.1533   -0.3438    1.5640 H   0  0  0  0  0  0  0  0  0  0  0  0
   -2.9693   -1.4478   -0.1665 O   0  0  0  0  0  1  0  0  0  0  0  0
  1  3  1  0  0  0  0
  2  1  1  0  0  0  0
  4  5  1  0  0  0  0
  4  7  1  0  0  0  0
  4  1  1  0  0  0  0
  6  4  1  0  0  0  0
  8  1  1  0  0  0  0
  8 11  1  0  0  0  0
  8 10  1  0  0  0  0
  9  8  1  0  0  0  0
 11 13  1  0  0  0  0
 12 11  1  0  0  0  0
 14 11  1  0  0  0  0
M  END
$$$$
Title Card Required
 OpenBabel07152211483D

 14 13  0  0  0  0  0  0  0  0999 V2000
   -0.8519    1.0592    0.1668 C   0  0  0  0  0  0  0  0  0  0  0  0
   -0.5376    1.7899   -0.4973 H   0  0  0  0  0  0  0  0  0  0  0  0
   -0.6866    1.2251    1.1827 H   0  0  0  0  0  0  0  0  0  0  0  0
   -0.1753   -0.2144   -0.4059 C   0  0  0  0  0  0  0  0  0  0  0  0
   -0.6790   -1.0809    0.1007 H   0  0  0  0  0  0  0  0  0  0  0  0
   -0.2499   -0.5325   -1.5592 H   0  0  0  0  0  0  0  0  0  0  0  0
    1.8153   -0.0023    0.0425 Br  0  0  0  0  0  0  0  0  0  0  0  0
   -2.4297    0.9635   -0.1773 C   0  0  0  0  0  0  0  0  0  0  0  0
   -2.5560    1.0659   -1.2041 H   0  0  0  0  0  0  0  0  0  0  0  0
   -3.1830    1.6657    0.3016 H   0  0  0  0  0  0  0  0  0  0  0  0
   -3.2182   -0.1969    0.3487 C   0  0  0  0  0  0  0  0  0  0  0  0
   -4.3811    0.1112    0.3309 H   0  0  0  0  0  0  0  0  0  0  0  0
   -3.1976   -0.3481    1.5245 H   0  0  0  0  0  0  0  0  0  0  0  0
   -2.9738   -1.4431   -0.1702 O   0  0  0  0  0  1  0  0  0  0  0  0
  1  3  1  0  0  0  0
  2  1  1  0  0  0  0
  4  7  1  0  0  0  0
  4  5  1  0  0  0  0
  4  1  1  0  0  0  0
  6  4  1  0  0  0  0
  8  1  1  0  0  0  0
  8 10  1  0  0  0  0
  8 11  1  0  0  0  0
  9  8  1  0  0  0  0
 11 13  1  0  0  0  0
 12 11  1  0  0  0  0
 14 11  1  0  0  0  0
M  END
$$$$
Title Card Required
 OpenBabel07152211483D

 14 13  0  0  0  0  0  0  0  0999 V2000
   -0.8532    1.0606    0.1551 C   0  0  0  0  0  0  0  0  0  0  0  0
   -0.5672    1.7754   -0.4808 H   0  0  0  0  0  0  0  0  0  0  0  0
   -0.6556    1.2076    1.1781 H   0  0  0  0  0  0  0  0  0  0  0  0
   -0.1678   -0.2085   -0.3993 C   0  0  0  0  0  0  0  0  0  0  0  0
   -0.6978   -1.0042    0.1915 H   0  0  0  0  0  0  0  0  0  0  0  0
   -0.2771   -0.5373   -1.5734 H   0  0  0  0  0  0  0  0  0  0  0  0
    1.8146   -0.0031    0.0422 Br  0  0  0  0  0  0  0  0  0  0  0  0
   -2.4479    0.9492   -0.1563 C   0  0  0  0  0  0  0  0  0  0  0  0
   -2.5675    1.0681   -1.2002 H   0  0  0  0  0  0  0  0  0  0  0  0
   -3.1258    1.7158    0.1994 H   0  0  0  0  0  0  0  0  0  0  0  0
   -3.2000   -0.2057    0.3467 C   0  0  0  0  0  0  0  0  0  0  0  0
   -4.3089    0.1060    0.3149 H   0  0  0  0  0  0  0  0  0  0  0  0
   -3.2279   -0.3174    1.4646 H   0  0  0  0  0  0  0  0  0  0  0  0
   -2.9780   -1.4347   -0.1740 O   0  0  0  0  0  1  0  0  0  0  0  0
  1  3  1  0  0  0  0
  2  1  1  0  0  0  0
  4  7  1  0  0  0  0
  4  1  1  0  0  0  0
  4  5  1  0  0  0  0
  6  4  1  0  0  0  0
  8  1  1  0  0  0  0
  8 10  1  0  0  0  0
  8 11  1  0  0  0  0
  9  8  1  0  0  0  0
 11 13  1  0  0  0  0
 12 11  1  0  0  0  0
 14 11  1  0  0  0  0
M  END
$$$$
Title Card Required
 OpenBabel07152211483D

 14 13  0  0  0  0  0  0  0  0999 V2000
   -0.8614    1.0553    0.1412 C   0  0  0  0  0  0  0  0  0  0  0  0
   -0.5591    1.8462   -0.5053 H   0  0  0  0  0  0  0  0  0  0  0  0
   -0.6169    1.1966    1.2070 H   0  0  0  0  0  0  0  0  0  0  0  0
   -0.1635   -0.2052   -0.3942 C   0  0  0  0  0  0  0  0  0  0  0  0
   -0.6918   -0.9421    0.2601 H   0  0  0  0  0  0  0  0  0  0  0  0
   -0.2951   -0.5107   -1.5190 H   0  0  0  0  0  0  0  0  0  0  0  0
    1.8139   -0.0040    0.0419 Br  0  0  0  0  0  0  0  0  0  0  0  0
   -2.4610    0.9381   -0.1344 C   0  0  0  0  0  0  0  0  0  0  0  0
   -2.5786    1.0600   -1.2371 H   0  0  0  0  0  0  0  0  0  0  0  0
   -3.0574    1.7974    0.1227 H   0  0  0  0  0  0  0  0  0  0  0  0
   -3.1870   -0.2225    0.3454 C   0  0  0  0  0  0  0  0  0  0  0  0
   -4.2455    0.1093    0.2844 H   0  0  0  0  0  0  0  0  0  0  0  0
   -3.2350   -0.2670    1.4268 H   0  0  0  0  0  0  0  0  0  0  0  0
   -2.9807   -1.4253   -0.1778 O   0  0  0  0  0  1  0  0  0  0  0  0
  1  3  1  0  0  0  0
  2  1  1  0  0  0  0
  4  7  1  0  0  0  0
  4  1  1  0  0  0  0
  4  5  1  0  0  0  0
  6  4  1  0  0  0  0
  8 10  1  0  0  0  0
  8  1  1  0  0  0  0
  8 11  1  0  0  0  0
  9  8  1  0  0  0  0
 11 13  1  0  0  0  0
 12 11  1  0  0  0  0
 14 11  1  0  0  0  0
M  END
$$$$
Title Card Required
 OpenBabel07152211483D

 14 13  0  0  0  0  0  0  0  0999 V2000
   -0.8725    1.0487    0.1261 C   0  0  0  0  0  0  0  0  0  0  0  0
   -0.5385    1.9422   -0.5308 H   0  0  0  0  0  0  0  0  0  0  0  0
   -0.5812    1.1881    1.2307 H   0  0  0  0  0  0  0  0  0  0  0  0
   -0.1618   -0.2030   -0.3892 C   0  0  0  0  0  0  0  0  0  0  0  0
   -0.6667   -0.8990    0.3082 H   0  0  0  0  0  0  0  0  0  0  0  0
   -0.3059   -0.4696   -1.4279 H   0  0  0  0  0  0  0  0  0  0  0  0
    1.8131   -0.0048    0.0416 Br  0  0  0  0  0  0  0  0  0  0  0  0
   -2.4688    0.9304   -0.1162 C   0  0  0  0  0  0  0  0  0  0  0  0
   -2.5844    1.0374   -1.2725 H   0  0  0  0  0  0  0  0  0  0  0  0
   -2.9890    1.8960    0.0730 H   0  0  0  0  0  0  0  0  0  0  0  0
   -3.1781   -0.2433    0.3440 C   0  0  0  0  0  0  0  0  0  0  0  0
   -4.2109    0.1227    0.2427 H   0  0  0  0  0  0  0  0  0  0  0  0
   -3.2237   -0.2100    1.4300 H   0  0  0  0  0  0  0  0  0  0  0  0
   -2.9818   -1.4164   -0.1819 O   0  0  0  0  0  1  0  0  0  0  0  0
  1  3  1  0  0  0  0
  2  1  1  0  0  0  0
  4  7  1  0  0  0  0
  4  1  1  0  0  0  0
  4  5  1  0  0  0  0
  6  4  1  0  0  0  0
  8 10  1  0  0  0  0
  8  1  1  0  0  0  0
  8 11  1  0  0  0  0
  9  8  1  0  0  0  0
 11 13  1  0  0  0  0
 12 11  1  0  0  0  0
 14 11  1  0  0  0  0
M  END
$$$$
Title Card Required
 OpenBabel07152211483D

 14 13  0  0  0  0  0  0  0  0999 V2000
   -0.8854    1.0441    0.1083 C   0  0  0  0  0  0  0  0  0  0  0  0
   -0.5203    2.0286   -0.5327 H   0  0  0  0  0  0  0  0  0  0  0  0
   -0.5533    1.1795    1.2282 H   0  0  0  0  0  0  0  0  0  0  0  0
   -0.1615   -0.1996   -0.3795 C   0  0  0  0  0  0  0  0  0  0  0  0
   -0.6230   -0.8754    0.3436 H   0  0  0  0  0  0  0  0  0  0  0  0
   -0.3157   -0.4279   -1.3435 H   0  0  0  0  0  0  0  0  0  0  0  0
    1.8121   -0.0058    0.0411 Br  0  0  0  0  0  0  0  0  0  0  0  0
   -2.4720    0.9274   -0.1023 C   0  0  0  0  0  0  0  0  0  0  0  0
   -2.5833    0.9967   -1.2869 H   0  0  0  0  0  0  0  0  0  0  0  0
   -2.9101    1.9964    0.0420 H   0  0  0  0  0  0  0  0  0  0  0  0
   -3.1725   -0.2678    0.3432 C   0  0  0  0  0  0  0  0  0  0  0  0
   -4.2080    0.1467    0.1888 H   0  0  0  0  0  0  0  0  0  0  0  0
   -3.1966   -0.1474    1.4722 H   0  0  0  0  0  0  0  0  0  0  0  0
   -2.9811   -1.4081   -0.1871 O   0  0  0  0  0  1  0  0  0  0  0  0
  1  3  1  0  0  0  0
  2  1  1  0  0  0  0
  4  7  1  0  0  0  0
  4  1  1  0  0  0  0
  4  5  1  0  0  0  0
  6  4  1  0  0  0  0
  8 10  1  0  0  0  0
  8  1  1  0  0  0  0
  8 11  1  0  0  0  0
  9  8  1  0  0  0  0
 11 13  1  0  0  0  0
 12 11  1  0  0  0  0
 14 11  1  0  0  0  0
M  END
$$$$
Title Card Required
 OpenBabel07152211483D

 14 13  0  0  0  0  0  0  0  0999 V2000
   -0.8991    1.0442    0.0876 C   0  0  0  0  0  0  0  0  0  0  0  0
   -0.5155    2.0756   -0.4960 H   0  0  0  0  0  0  0  0  0  0  0  0
   -0.5423    1.1709    1.1835 H   0  0  0  0  0  0  0  0  0  0  0  0
   -0.1617   -0.1924   -0.3587 C   0  0  0  0  0  0  0  0  0  0  0  0
   -0.5611   -0.8809    0.3696 H   0  0  0  0  0  0  0  0  0  0  0  0
   -0.3332   -0.4071   -1.3362 H   0  0  0  0  0  0  0  0  0  0  0  0
    1.8108   -0.0070    0.0405 Br  0  0  0  0  0  0  0  0  0  0  0  0
   -2.4695    0.9318   -0.0950 C   0  0  0  0  0  0  0  0  0  0  0  0
   -2.5738    0.9359   -1.2639 H   0  0  0  0  0  0  0  0  0  0  0  0
   -2.8162    2.0694    0.0308 H   0  0  0  0  0  0  0  0  0  0  0  0
   -3.1724   -0.2935    0.3457 C   0  0  0  0  0  0  0  0  0  0  0  0
   -4.2329    0.1758    0.1280 H   0  0  0  0  0  0  0  0  0  0  0  0
   -3.1552   -0.0877    1.5371 H   0  0  0  0  0  0  0  0  0  0  0  0
   -2.9778   -1.4015   -0.1941 O   0  0  0  0  0  1  0  0  0  0  0  0
  1  3  1  0  0  0  0
  2  1  1  0  0  0  0
  4  7  1  0  0  0  0
  4  1  1  0  0  0  0
  4  5  1  0  0  0  0
  6  4  1  0  0  0  0
  8 10  1  0  0  0  0
  8  1  1  0  0  0  0
  8 11  1  0  0  0  0
  9  8  1  0  0  0  0
 11 13  1  0  0  0  0
 12 11  1  0  0  0  0
 14 11  1  0  0  0  0
M  END
$$$$
Title Card Required
 OpenBabel07152211483D

 14 13  0  0  0  0  0  0  0  0999 V2000
   -0.9101    1.0499    0.0683 C   0  0  0  0  0  0  0  0  0  0  0  0
   -0.5294    2.0620   -0.4300 H   0  0  0  0  0  0  0  0  0  0  0  0
   -0.5533    1.1664    1.1123 H   0  0  0  0  0  0  0  0  0  0  0  0
   -0.1618   -0.1824   -0.3322 C   0  0  0  0  0  0  0  0  0  0  0  0
   -0.4973   -0.9169    0.3862 H   0  0  0  0  0  0  0  0  0  0  0  0
   -0.3526   -0.4130   -1.3985 H   0  0  0  0  0  0  0  0  0  0  0  0
    1.8095   -0.0082    0.0398 Br  0  0  0  0  0  0  0  0  0  0  0  0
   -2.4612    0.9433   -0.0959 C   0  0  0  0  0  0  0  0  0  0  0  0
   -2.5590    0.8710   -1.2115 H   0  0  0  0  0  0  0  0  0  0  0  0
   -2.7299    2.0844    0.0401 H   0  0  0  0  0  0  0  0  0  0  0  0
   -3.1792   -0.3119    0.3530 C   0  0  0  0  0  0  0  0  0  0  0  0
   -4.2645    0.1940    0.0819 H   0  0  0  0  0  0  0  0  0  0  0  0
   -3.1134   -0.0530    1.5886 H   0  0  0  0  0  0  0  0  0  0  0  0
   -2.9721   -1.3988   -0.2018 O   0  0  0  0  0  1  0  0  0  0  0  0
  1  3  1  0  0  0  0
  2  1  1  0  0  0  0
  4  7  1  0  0  0  0
  4  1  1  0  0  0  0
  4  5  1  0  0  0  0
  6  4  1  0  0  0  0
  8 10  1  0  0  0  0
  8  1  1  0  0  0  0
  8 11  1  0  0  0  0
  9  8  1  0  0  0  0
 11 13  1  0  0  0  0
 12 11  1  0  0  0  0
 14 11  1  0  0  0  0
M  END
$$$$
Title Card Required
 OpenBabel07152211483D

 14 13  0  0  0  0  0  0  0  0999 V2000
   -0.9192    1.0595    0.0497 C   0  0  0  0  0  0  0  0  0  0  0  0
   -0.5555    2.0044   -0.3540 H   0  0  0  0  0  0  0  0  0  0  0  0
   -0.5800    1.1695    1.0476 H   0  0  0  0  0  0  0  0  0  0  0  0
   -0.1626   -0.1716   -0.3066 C   0  0  0  0  0  0  0  0  0  0  0  0
   -0.4351   -0.9730    0.3938 H   0  0  0  0  0  0  0  0  0  0  0  0
   -0.3621   -0.4298   -1.4539 H   0  0  0  0  0  0  0  0  0  0  0  0
    1.8081   -0.0094    0.0390 Br  0  0  0  0  0  0  0  0  0  0  0  0
   -2.4478    0.9595   -0.1021 C   0  0  0  0  0  0  0  0  0  0  0  0
   -2.5440    0.8078   -1.1575 H   0  0  0  0  0  0  0  0  0  0  0  0
   -2.6597    2.0516    0.0648 H   0  0  0  0  0  0  0  0  0  0  0  0
   -3.1923   -0.3217    0.3651 C   0  0  0  0  0  0  0  0  0  0  0  0
   -4.2895    0.1948    0.0572 H   0  0  0  0  0  0  0  0  0  0  0  0
   -3.0771   -0.0484    1.6152 H   0  0  0  0  0  0  0  0  0  0  0  0
   -2.9641   -1.3995   -0.2104 O   0  0  0  0  0  1  0  0  0  0  0  0
  1  3  1  0  0  0  0
  2  1  1  0  0  0  0
  4  7  1  0  0  0  0
  4  1  1  0  0  0  0
  4  5  1  0  0  0  0
  6  4  1  0  0  0  0
  8  1  1  0  0  0  0
  8 10  1  0  0  0  0
  8 11  1  0  0  0  0
  9  8  1  0  0  0  0
 11 13  1  0  0  0  0
 12 11  1  0  0  0  0
 14 11  1  0  0  0  0
M  END
$$$$
Title Card Required
 OpenBabel07152211483D

 14 13  0  0  0  0  0  0  0  0999 V2000
   -0.9285    1.0689    0.0308 C   0  0  0  0  0  0  0  0  0  0  0  0
   -0.5745    1.9494   -0.2975 H   0  0  0  0  0  0  0  0  0  0  0  0
   -0.6175    1.1842    1.0288 H   0  0  0  0  0  0  0  0  0  0  0  0
   -0.1645   -0.1617   -0.2840 C   0  0  0  0  0  0  0  0  0  0  0  0
   -0.3725   -1.0370    0.3848 H   0  0  0  0  0  0  0  0  0  0  0  0
   -0.3534   -0.4487   -1.4560 H   0  0  0  0  0  0  0  0  0  0  0  0
    1.8065   -0.0106    0.0380 Br  0  0  0  0  0  0  0  0  0  0  0  0
   -2.4278    0.9787   -0.1117 C   0  0  0  0  0  0  0  0  0  0  0  0
   -2.5342    0.7447   -1.1361 H   0  0  0  0  0  0  0  0  0  0  0  0
   -2.6167    1.9957    0.1068 H   0  0  0  0  0  0  0  0  0  0  0  0
   -3.2124   -0.3222    0.3829 C   0  0  0  0  0  0  0  0  0  0  0  0
   -4.3008    0.1722    0.0611 H   0  0  0  0  0  0  0  0  0  0  0  0
   -3.0501   -0.0804    1.6096 H   0  0  0  0  0  0  0  0  0  0  0  0
   -2.9531   -1.4033   -0.2202 O   0  0  0  0  0  1  0  0  0  0  0  0
  1  3  1  0  0  0  0
  2  1  1  0  0  0  0
  4  1  1  0  0  0  0
  4  7  1  0  0  0  0
  4  5  1  0  0  0  0
  6  4  1  0  0  0  0
  8  1  1  0  0  0  0
  8 10  1  0  0  0  0
  8 11  1  0  0  0  0
  9  8  1  0  0  0  0
 11 13  1  0  0  0  0
 12 11  1  0  0  0  0
 14 11  1  0  0  0  0
M  END
$$$$
Title Card Required
 OpenBabel07152211483D

 14 13  0  0  0  0  0  0  0  0999 V2000
   -0.9382    1.0711    0.0171 C   0  0  0  0  0  0  0  0  0  0  0  0
   -0.5542    1.9711   -0.3037 H   0  0  0  0  0  0  0  0  0  0  0  0
   -0.6609    1.2080    1.0730 H   0  0  0  0  0  0  0  0  0  0  0  0
   -0.1671   -0.1564   -0.2688 C   0  0  0  0  0  0  0  0  0  0  0  0
   -0.3225   -1.0812    0.3543 H   0  0  0  0  0  0  0  0  0  0  0  0
   -0.3251   -0.4612   -1.3853 H   0  0  0  0  0  0  0  0  0  0  0  0
    1.8049   -0.0117    0.0370 Br  0  0  0  0  0  0  0  0  0  0  0  0
   -2.4041    0.9939   -0.1232 C   0  0  0  0  0  0  0  0  0  0  0  0
   -2.5370    0.6946   -1.1651 H   0  0  0  0  0  0  0  0  0  0  0  0
   -2.6234    1.9715    0.1636 H   0  0  0  0  0  0  0  0  0  0  0  0
   -3.2357   -0.3141    0.4033 C   0  0  0  0  0  0  0  0  0  0  0  0
   -4.2922    0.1279    0.0994 H   0  0  0  0  0  0  0  0  0  0  0  0
   -3.0416   -0.1466    1.5692 H   0  0  0  0  0  0  0  0  0  0  0  0
   -2.9403   -1.4085   -0.2295 O   0  0  0  0  0  1  0  0  0  0  0  0
  1  3  1  0  0  0  0
  2  1  1  0  0  0  0
  4  1  1  0  0  0  0
  4  7  1  0  0  0  0
  4  5  1  0  0  0  0
  6  4  1  0  0  0  0
  8  1  1  0  0  0  0
  8 10  1  0  0  0  0
  8 11  1  0  0  0  0
  9  8  1  0  0  0  0
 11 13  1  0  0  0  0
 12 11  1  0  0  0  0
 14 11  1  0  0  0  0
M  END
$$$$
Title Card Required
 OpenBabel07152211483D

 14 13  0  0  0  0  0  0  0  0999 V2000
   -0.9448    1.0690    0.0120 C   0  0  0  0  0  0  0  0  0  0  0  0
   -0.5113    2.0322   -0.3509 H   0  0  0  0  0  0  0  0  0  0  0  0
   -0.7062    1.2316    1.1297 H   0  0  0  0  0  0  0  0  0  0  0  0
   -0.1691   -0.1562   -0.2605 C   0  0  0  0  0  0  0  0  0  0  0  0
   -0.2957   -1.0951    0.3165 H   0  0  0  0  0  0  0  0  0  0  0  0
   -0.2899   -0.4670   -1.2876 H   0  0  0  0  0  0  0  0  0  0  0  0
    1.8036   -0.0125    0.0361 Br  0  0  0  0  0  0  0  0  0  0  0  0
   -2.3838    1.0016   -0.1355 C   0  0  0  0  0  0  0  0  0  0  0  0
   -2.5492    0.6719   -1.2076 H   0  0  0  0  0  0  0  0  0  0  0  0
   -2.6684    1.9888    0.2189 H   0  0  0  0  0  0  0  0  0  0  0  0
   -3.2555   -0.3035    0.4205 C   0  0  0  0  0  0  0  0  0  0  0  0
   -4.2759    0.0810    0.1554 H   0  0  0  0  0  0  0  0  0  0  0  0
   -3.0491   -0.2208    1.5200 H   0  0  0  0  0  0  0  0  0  0  0  0
   -2.9287   -1.4128   -0.2366 O   0  0  0  0  0  1  0  0  0  0  0  0
  1  3  1  0  0  0  0
  2  1  1  0  0  0  0
  4  1  1  0  0  0  0
  4  7  1  0  0  0  0
  4  5  1  0  0  0  0
  6  4  1  0  0  0  0
  8  1  1  0  0  0  0
  8 10  1  0  0  0  0
  8 11  1  0  0  0  0
  9  8  1  0  0  0  0
 11 13  1  0  0  0  0
 12 11  1  0  0  0  0
 14 11  1  0  0  0  0
M  END
$$$$
Title Card Required
 OpenBabel07152211483D

 14 13  0  0  0  0  0  0  0  0999 V2000
   -0.9471    1.0680    0.0141 C   0  0  0  0  0  0  0  0  0  0  0  0
   -0.4647    2.0832   -0.4151 H   0  0  0  0  0  0  0  0  0  0  0  0
   -0.7611    1.2562    1.1747 H   0  0  0  0  0  0  0  0  0  0  0  0
   -0.1699   -0.1590   -0.2529 C   0  0  0  0  0  0  0  0  0  0  0  0
   -0.2880   -1.0917    0.2785 H   0  0  0  0  0  0  0  0  0  0  0  0
   -0.2506   -0.4782   -1.2045 H   0  0  0  0  0  0  0  0  0  0  0  0
    1.8024   -0.0133    0.0351 Br  0  0  0  0  0  0  0  0  0  0  0  0
   -2.3662    1.0060   -0.1511 C   0  0  0  0  0  0  0  0  0  0  0  0
   -2.5682    0.6750   -1.2445 H   0  0  0  0  0  0  0  0  0  0  0  0
   -2.7383    2.0164    0.2682 H   0  0  0  0  0  0  0  0  0  0  0  0
   -3.2728   -0.2920    0.4355 C   0  0  0  0  0  0  0  0  0  0  0  0
   -4.2695    0.0363    0.2266 H   0  0  0  0  0  0  0  0  0  0  0  0
   -3.0654   -0.3041    1.4818 H   0  0  0  0  0  0  0  0  0  0  0  0
   -2.9165   -1.4163   -0.2428 O   0  0  0  0  0  1  0  0  0  0  0  0
  1  3  1  0  0  0  0
  2  1  1  0  0  0  0
  4  1  1  0  0  0  0
  4  7  1  0  0  0  0
  4  5  1  0  0  0  0
  6  4  1  0  0  0  0
  8  1  1  0  0  0  0
  8 10  1  0  0  0  0
  8 11  1  0  0  0  0
  9  8  1  0  0  0  0
 11 13  1  0  0  0  0
 12 11  1  0  0  0  0
 14 11  1  0  0  0  0
M  END
$$$$
Title Card Required
 OpenBabel07152211483D

 14 13  0  0  0  0  0  0  0  0999 V2000
   -0.9418    1.0722    0.0260 C   0  0  0  0  0  0  0  0  0  0  0  0
   -0.4265    2.0855   -0.4857 H   0  0  0  0  0  0  0  0  0  0  0  0
   -0.8311    1.2827    1.1845 H   0  0  0  0  0  0  0  0  0  0  0  0
   -0.1681   -0.1630   -0.2405 C   0  0  0  0  0  0  0  0  0  0  0  0
   -0.3107   -1.0844    0.2576 H   0  0  0  0  0  0  0  0  0  0  0  0
   -0.2085   -0.5140   -1.2031 H   0  0  0  0  0  0  0  0  0  0  0  0
    1.8009   -0.0140    0.0338 Br  0  0  0  0  0  0  0  0  0  0  0  0
   -2.3547    1.0091   -0.1726 C   0  0  0  0  0  0  0  0  0  0  0  0
   -2.5945    0.7163   -1.2603 H   0  0  0  0  0  0  0  0  0  0  0  0
   -2.8258    2.0231    0.2955 H   0  0  0  0  0  0  0  0  0  0  0  0
   -3.2857   -0.2808    0.4464 C   0  0  0  0  0  0  0  0  0  0  0  0
   -4.3059    0.0031    0.3155 H   0  0  0  0  0  0  0  0  0  0  0  0
   -3.0850   -0.4014    1.4901 H   0  0  0  0  0  0  0  0  0  0  0  0
   -2.9020   -1.4185   -0.2488 O   0  0  0  0  0  1  0  0  0  0  0  0
  1  3  1  0  0  0  0
  2  1  1  0  0  0  0
  4  1  1  0  0  0  0
  4  7  1  0  0  0  0
  4  5  1  0  0  0  0
  6  4  1  0  0  0  0
  8  1  1  0  0  0  0
  8 10  1  0  0  0  0
  8 11  1  0  0  0  0
  9  8  1  0  0  0  0
 11 13  1  0  0  0  0
 12 11  1  0  0  0  0
 14 11  1  0  0  0  0
M  END
$$$$
Title Card Required
 OpenBabel07152211483D

 14 13  0  0  0  0  0  0  0  0999 V2000
   -0.9298    1.0819    0.0436 C   0  0  0  0  0  0  0  0  0  0  0  0
   -0.4177    2.0223   -0.5270 H   0  0  0  0  0  0  0  0  0  0  0  0
   -0.8881    1.3026    1.1496 H   0  0  0  0  0  0  0  0  0  0  0  0
   -0.1640   -0.1667   -0.2282 C   0  0  0  0  0  0  0  0  0  0  0  0
   -0.3620   -1.0902    0.2745 H   0  0  0  0  0  0  0  0  0  0  0  0
   -0.1777   -0.5556   -1.2764 H   0  0  0  0  0  0  0  0  0  0  0  0
    1.7997   -0.0145    0.0327 Br  0  0  0  0  0  0  0  0  0  0  0  0
   -2.3563    1.0115   -0.1926 C   0  0  0  0  0  0  0  0  0  0  0  0
   -2.6180    0.7828   -1.2477 H   0  0  0  0  0  0  0  0  0  0  0  0
   -2.8874    1.9881    0.2800 H   0  0  0  0  0  0  0  0  0  0  0  0
   -3.2884   -0.2751    0.4493 C   0  0  0  0  0  0  0  0  0  0  0  0
   -4.3784   -0.0047    0.3913 H   0  0  0  0  0  0  0  0  0  0  0  0
   -3.0983   -0.4777    1.5441 H   0  0  0  0  0  0  0  0  0  0  0  0
   -2.8898   -1.4176   -0.2527 O   0  0  0  0  0  1  0  0  0  0  0  0
  1  3  1  0  0  0  0
  2  1  1  0  0  0  0
  4  7  1  0  0  0  0
  4  1  1  0  0  0  0
  4  5  1  0  0  0  0
  6  4  1  0  0  0  0
  8  1  1  0  0  0  0
  8 10  1  0  0  0  0
  8 11  1  0  0  0  0
  9  8  1  0  0  0  0
 11 13  1  0  0  0  0
 12 11  1  0  0  0  0
 14 11  1  0  0  0  0
M  END
$$$$
Title Card Required
 OpenBabel07152211483D

 14 13  0  0  0  0  0  0  0  0999 V2000
   -0.9146    1.0944    0.0621 C   0  0  0  0  0  0  0  0  0  0  0  0
   -0.4302    1.9209   -0.5403 H   0  0  0  0  0  0  0  0  0  0  0  0
   -0.9261    1.3208    1.1040 H   0  0  0  0  0  0  0  0  0  0  0  0
   -0.1587   -0.1722   -0.2202 C   0  0  0  0  0  0  0  0  0  0  0  0
   -0.4293   -1.0994    0.3127 H   0  0  0  0  0  0  0  0  0  0  0  0
   -0.1579   -0.5781   -1.3414 H   0  0  0  0  0  0  0  0  0  0  0  0
    1.7987   -0.0148    0.0318 Br  0  0  0  0  0  0  0  0  0  0  0  0
   -2.3678    1.0137   -0.2089 C   0  0  0  0  0  0  0  0  0  0  0  0
   -2.6399    0.8573   -1.2318 H   0  0  0  0  0  0  0  0  0  0  0  0
   -2.9203    1.9250    0.2335 H   0  0  0  0  0  0  0  0  0  0  0  0
   -3.2848   -0.2747    0.4484 C   0  0  0  0  0  0  0  0  0  0  0  0
   -4.4452   -0.0008    0.4545 H   0  0  0  0  0  0  0  0  0  0  0  0
   -3.1084   -0.5267    1.5998 H   0  0  0  0  0  0  0  0  0  0  0  0
   -2.8798   -1.4139   -0.2550 O   0  0  0  0  0  1  0  0  0  0  0  0
  1  3  1  0  0  0  0
  2  1  1  0  0  0  0
  4  7  1  0  0  0  0
  4  1  1  0  0  0  0
  4  5  1  0  0  0  0
  6  4  1  0  0  0  0
  8  1  1  0  0  0  0
  8 10  1  0  0  0  0
  8 11  1  0  0  0  0
  9  8  1  0  0  0  0
 11 12  1  0  0  0  0
 11 13  1  0  0  0  0
 14 11  1  0  0  0  0
M  END
$$$$
Title Card Required
 OpenBabel07152211483D

 14 13  0  0  0  0  0  0  0  0999 V2000
   -0.8976    1.1076    0.0798 C   0  0  0  0  0  0  0  0  0  0  0  0
   -0.4496    1.8062   -0.5419 H   0  0  0  0  0  0  0  0  0  0  0  0
   -0.9455    1.3480    1.0842 H   0  0  0  0  0  0  0  0  0  0  0  0
   -0.1527   -0.1824   -0.2165 C   0  0  0  0  0  0  0  0  0  0  0  0
   -0.5090   -1.0953    0.3587 H   0  0  0  0  0  0  0  0  0  0  0  0
   -0.1489   -0.5732   -1.3655 H   0  0  0  0  0  0  0  0  0  0  0  0
    1.7977   -0.0151    0.0308 Br  0  0  0  0  0  0  0  0  0  0  0  0
   -2.3878    1.0153   -0.2218 C   0  0  0  0  0  0  0  0  0  0  0  0
   -2.6658    0.9374   -1.2377 H   0  0  0  0  0  0  0  0  0  0  0  0
   -2.9351    1.8493    0.1656 H   0  0  0  0  0  0  0  0  0  0  0  0
   -3.2766   -0.2798    0.4453 C   0  0  0  0  0  0  0  0  0  0  0  0
   -4.4857    0.0073    0.5103 H   0  0  0  0  0  0  0  0  0  0  0  0
   -3.1179   -0.5470    1.6374 H   0  0  0  0  0  0  0  0  0  0  0  0
   -2.8707   -1.4065   -0.2558 O   0  0  0  0  0  1  0  0  0  0  0  0
  1  3  1  0  0  0  0
  2  1  1  0  0  0  0
  4  7  1  0  0  0  0
  4  1  1  0  0  0  0
  4  5  1  0  0  0  0
  6  4  1  0  0  0  0
  8  1  1  0  0  0  0
  8 10  1  0  0  0  0
  8 11  1  0  0  0  0
  9  8  1  0  0  0  0
 11 12  1  0  0  0  0
 11 13  1  0  0  0  0
 14 11  1  0  0  0  0
M  END
$$$$
Title Card Required
 OpenBabel07152211483D

 14 13  0  0  0  0  0  0  0  0999 V2000
   -0.8826    1.1158    0.0963 C   0  0  0  0  0  0  0  0  0  0  0  0
   -0.4453    1.7361   -0.5698 H   0  0  0  0  0  0  0  0  0  0  0  0
   -0.9402    1.3937    1.1234 H   0  0  0  0  0  0  0  0  0  0  0  0
   -0.1475   -0.1995   -0.2169 C   0  0  0  0  0  0  0  0  0  0  0  0
   -0.5896   -1.0622    0.3973 H   0  0  0  0  0  0  0  0  0  0  0  0
   -0.1547   -0.5343   -1.3236 H   0  0  0  0  0  0  0  0  0  0  0  0
    1.7967   -0.0153    0.0300 Br  0  0  0  0  0  0  0  0  0  0  0  0
   -2.4146    1.0124   -0.2310 C   0  0  0  0  0  0  0  0  0  0  0  0
   -2.6949    1.0150   -1.2826 H   0  0  0  0  0  0  0  0  0  0  0  0
   -2.9546    1.8099    0.1025 H   0  0  0  0  0  0  0  0  0  0  0  0
   -3.2635   -0.2919    0.4403 C   0  0  0  0  0  0  0  0  0  0  0  0
   -4.4803    0.0152    0.5528 H   0  0  0  0  0  0  0  0  0  0  0  0
   -3.1243   -0.5285    1.6397 H   0  0  0  0  0  0  0  0  0  0  0  0
   -2.8629   -1.3946   -0.2547 O   0  0  0  0  0  1  0  0  0  0  0  0
  1  3  1  0  0  0  0
  2  1  1  0  0  0  0
  4  7  1  0  0  0  0
  4  1  1  0  0  0  0
  4  5  1  0  0  0  0
  6  4  1  0  0  0  0
  8  1  1  0  0  0  0
  8 10  1  0  0  0  0
  8 11  1  0  0  0  0
  9  8  1  0  0  0  0
 11 12  1  0  0  0  0
 11 13  1  0  0  0  0
 14 11  1  0  0  0  0
M  END
$$$$
Title Card Required
 OpenBabel07152211483D

 14 13  0  0  0  0  0  0  0  0999 V2000
   -0.8749    1.1162    0.1104 C   0  0  0  0  0  0  0  0  0  0  0  0
   -0.4087    1.7451   -0.6325 H   0  0  0  0  0  0  0  0  0  0  0  0
   -0.9106    1.4425    1.1860 H   0  0  0  0  0  0  0  0  0  0  0  0
   -0.1455   -0.2186   -0.2179 C   0  0  0  0  0  0  0  0  0  0  0  0
   -0.6444   -1.0105    0.4128 H   0  0  0  0  0  0  0  0  0  0  0  0
   -0.1739   -0.4812   -1.2452 H   0  0  0  0  0  0  0  0  0  0  0  0
    1.7960   -0.0155    0.0293 Br  0  0  0  0  0  0  0  0  0  0  0  0
   -2.4398    1.0036   -0.2372 C   0  0  0  0  0  0  0  0  0  0  0  0
   -2.7126    1.0682   -1.3369 H   0  0  0  0  0  0  0  0  0  0  0  0
   -2.9949    1.8477    0.0784 H   0  0  0  0  0  0  0  0  0  0  0  0
   -3.2489   -0.3072    0.4346 C   0  0  0  0  0  0  0  0  0  0  0  0
   -4.4313    0.0178    0.5690 H   0  0  0  0  0  0  0  0  0  0  0  0
   -3.1211   -0.4779    1.6076 H   0  0  0  0  0  0  0  0  0  0  0  0
   -2.8577   -1.3809   -0.2522 O   0  0  0  0  0  1  0  0  0  0  0  0
  1  3  1  0  0  0  0
  2  1  1  0  0  0  0
  4  7  1  0  0  0  0
  4  1  1  0  0  0  0
  4  5  1  0  0  0  0
  6  4  1  0  0  0  0
  8 10  1  0  0  0  0
  8  1  1  0  0  0  0
  8 11  1  0  0  0  0
  9  8  1  0  0  0  0
 11 12  1  0  0  0  0
 11 13  1  0  0  0  0
 14 11  1  0  0  0  0
M  END
$$$$
Title Card Required
 OpenBabel07152211483D

 14 13  0  0  0  0  0  0  0  0999 V2000
   -0.8715    1.1139    0.1219 C   0  0  0  0  0  0  0  0  0  0  0  0
   -0.3690    1.7859   -0.6881 H   0  0  0  0  0  0  0  0  0  0  0  0
   -0.8627    1.4837    1.2300 H   0  0  0  0  0  0  0  0  0  0  0  0
   -0.1463   -0.2362   -0.2144 C   0  0  0  0  0  0  0  0  0  0  0  0
   -0.6771   -0.9582    0.4130 H   0  0  0  0  0  0  0  0  0  0  0  0
   -0.2041   -0.4355   -1.1945 H   0  0  0  0  0  0  0  0  0  0  0  0
    1.7953   -0.0157    0.0288 Br  0  0  0  0  0  0  0  0  0  0  0  0
   -2.4646    0.9925   -0.2421 C   0  0  0  0  0  0  0  0  0  0  0  0
   -2.7148    1.0986   -1.3746 H   0  0  0  0  0  0  0  0  0  0  0  0
   -3.0376    1.9226    0.0781 H   0  0  0  0  0  0  0  0  0  0  0  0
   -3.2334   -0.3230    0.4281 C   0  0  0  0  0  0  0  0  0  0  0  0
   -4.3582    0.0148    0.5620 H   0  0  0  0  0  0  0  0  0  0  0  0
   -3.1045   -0.4078    1.5596 H   0  0  0  0  0  0  0  0  0  0  0  0
   -2.8539   -1.3669   -0.2489 O   0  0  0  0  0  1  0  0  0  0  0  0
  1  3  1  0  0  0  0
  2  1  1  0  0  0  0
  4  7  1  0  0  0  0
  4  1  1  0  0  0  0
  4  5  1  0  0  0  0
  6  4  1  0  0  0  0
  8 10  1  0  0  0  0
  8  1  1  0  0  0  0
  8 11  1  0  0  0  0
  9  8  1  0  0  0  0
 11 12  1  0  0  0  0
 11 13  1  0  0  0  0
 14 11  1  0  0  0  0
M  END
$$$$
Title Card Required
 OpenBabel07152211483D

 14 13  0  0  0  0  0  0  0  0999 V2000
   -0.8704    1.1118    0.1308 C   0  0  0  0  0  0  0  0  0  0  0  0
   -0.3441    1.8313   -0.7076 H   0  0  0  0  0  0  0  0  0  0  0  0
   -0.7946    1.5132    1.2359 H   0  0  0  0  0  0  0  0  0  0  0  0
   -0.1497   -0.2511   -0.2020 C   0  0  0  0  0  0  0  0  0  0  0  0
   -0.6971   -0.9224    0.4105 H   0  0  0  0  0  0  0  0  0  0  0  0
   -0.2511   -0.4068   -1.2194 H   0  0  0  0  0  0  0  0  0  0  0  0
    1.7947   -0.0160    0.0283 Br  0  0  0  0  0  0  0  0  0  0  0  0
   -2.4930    0.9819   -0.2460 C   0  0  0  0  0  0  0  0  0  0  0  0
   -2.6992    1.1066   -1.3836 H   0  0  0  0  0  0  0  0  0  0  0  0
   -3.0637    1.9995    0.0871 H   0  0  0  0  0  0  0  0  0  0  0  0
   -3.2150   -0.3383    0.4190 C   0  0  0  0  0  0  0  0  0  0  0  0
   -4.2738    0.0068    0.5293 H   0  0  0  0  0  0  0  0  0  0  0  0
   -3.0639   -0.3165    1.5131 H   0  0  0  0  0  0  0  0  0  0  0  0
   -2.8503   -1.3527   -0.2453 O   0  0  0  0  0  1  0  0  0  0  0  0
  1  3  1  0  0  0  0
  2  1  1  0  0  0  0
  4  7  1  0  0  0  0
  4  1  1  0  0  0  0
  4  5  1  0  0  0  0
  6  4  1  0  0  0  0
  8 10  1  0  0  0  0
  8  1  1  0  0  0  0
  8 11  1  0  0  0  0
  9  8  1  0  0  0  0
 11 12  1  0  0  0  0
 11 13  1  0  0  0  0
 14 11  1  0  0  0  0
M  END
$$$$
Title Card Required
 OpenBabel07152211483D

 14 13  0  0  0  0  0  0  0  0999 V2000
   -0.8710    1.1119    0.1349 C   0  0  0  0  0  0  0  0  0  0  0  0
   -0.3494    1.8577   -0.6692 H   0  0  0  0  0  0  0  0  0  0  0  0
   -0.7189    1.5221    1.1925 H   0  0  0  0  0  0  0  0  0  0  0  0
   -0.1550   -0.2594   -0.1848 C   0  0  0  0  0  0  0  0  0  0  0  0
   -0.7108   -0.9313    0.4207 H   0  0  0  0  0  0  0  0  0  0  0  0
   -0.3080   -0.3976   -1.2945 H   0  0  0  0  0  0  0  0  0  0  0  0
    1.7941   -0.0165    0.0280 Br  0  0  0  0  0  0  0  0  0  0  0  0
   -2.5222    0.9763   -0.2479 C   0  0  0  0  0  0  0  0  0  0  0  0
   -2.6680    1.0887   -1.3579 H   0  0  0  0  0  0  0  0  0  0  0  0
   -3.0569    2.0389    0.0957 H   0  0  0  0  0  0  0  0  0  0  0  0
   -3.1947   -0.3481    0.4077 C   0  0  0  0  0  0  0  0  0  0  0  0
   -4.2194   -0.0025    0.4746 H   0  0  0  0  0  0  0  0  0  0  0  0
   -2.9945   -0.2184    1.4957 H   0  0  0  0  0  0  0  0  0  0  0  0
   -2.8462   -1.3421   -0.2429 O   0  0  0  0  0  1  0  0  0  0  0  0
  1  3  1  0  0  0  0
  2  1  1  0  0  0  0
  4  7  1  0  0  0  0
  4  1  1  0  0  0  0
  4  5  1  0  0  0  0
  6  4  1  0  0  0  0
  8 10  1  0  0  0  0
  8  1  1  0  0  0  0
  8 11  1  0  0  0  0
  9  8  1  0  0  0  0
 11 12  1  0  0  0  0
 11 13  1  0  0  0  0
 14 11  1  0  0  0  0
M  END
$$$$
Title Card Required
 OpenBabel07152211483D

 14 13  0  0  0  0  0  0  0  0999 V2000
   -0.8728    1.1138    0.1336 C   0  0  0  0  0  0  0  0  0  0  0  0
   -0.3830    1.8582   -0.5857 H   0  0  0  0  0  0  0  0  0  0  0  0
   -0.6490    1.5139    1.1236 H   0  0  0  0  0  0  0  0  0  0  0  0
   -0.1627   -0.2609   -0.1703 C   0  0  0  0  0  0  0  0  0  0  0  0
   -0.7168   -0.9824    0.4420 H   0  0  0  0  0  0  0  0  0  0  0  0
   -0.3596   -0.4007   -1.3434 H   0  0  0  0  0  0  0  0  0  0  0  0
    1.7934   -0.0170    0.0277 Br  0  0  0  0  0  0  0  0  0  0  0  0
   -2.5483    0.9770   -0.2464 C   0  0  0  0  0  0  0  0  0  0  0  0
   -2.6312    1.0514   -1.3205 H   0  0  0  0  0  0  0  0  0  0  0  0
   -3.0205    2.0268    0.0987 H   0  0  0  0  0  0  0  0  0  0  0  0
   -3.1741   -0.3489    0.3967 C   0  0  0  0  0  0  0  0  0  0  0  0
   -4.2188   -0.0101    0.4118 H   0  0  0  0  0  0  0  0  0  0  0  0
   -2.9072   -0.1288    1.5055 H   0  0  0  0  0  0  0  0  0  0  0  0
   -2.8407   -1.3378   -0.2428 O   0  0  0  0  0  1  0  0  0  0  0  0
  1  3  1  0  0  0  0
  2  1  1  0  0  0  0
  4  7  1  0  0  0  0
  4  1  1  0  0  0  0
  4  5  1  0  0  0  0
  6  4  1  0  0  0  0
  8 10  1  0  0  0  0
  8  1  1  0  0  0  0
  8 11  1  0  0  0  0
  9  8  1  0  0  0  0
 11 12  1  0  0  0  0
 11 13  1  0  0  0  0
 14 11  1  0  0  0  0
M  END
$$$$
Title Card Required
 OpenBabel07152211483D

 14 13  0  0  0  0  0  0  0  0999 V2000
   -0.8768    1.1150    0.1274 C   0  0  0  0  0  0  0  0  0  0  0  0
   -0.4292    1.8478   -0.4904 H   0  0  0  0  0  0  0  0  0  0  0  0
   -0.5878    1.4998    1.0675 H   0  0  0  0  0  0  0  0  0  0  0  0
   -0.1738   -0.2582   -0.1604 C   0  0  0  0  0  0  0  0  0  0  0  0
   -0.7050   -1.0501    0.4593 H   0  0  0  0  0  0  0  0  0  0  0  0
   -0.3982   -0.4119   -1.3353 H   0  0  0  0  0  0  0  0  0  0  0  0
    1.7928   -0.0176    0.0275 Br  0  0  0  0  0  0  0  0  0  0  0  0
   -2.5693    0.9831   -0.2402 C   0  0  0  0  0  0  0  0  0  0  0  0
   -2.5955    1.0022   -1.3020 H   0  0  0  0  0  0  0  0  0  0  0  0
   -2.9683    1.9733    0.0975 H   0  0  0  0  0  0  0  0  0  0  0  0
   -3.1544   -0.3395    0.3877 C   0  0  0  0  0  0  0  0  0  0  0  0
   -4.2565   -0.0201    0.3528 H   0  0  0  0  0  0  0  0  0  0  0  0
   -2.8170   -0.0566    1.5206 H   0  0  0  0  0  0  0  0  0  0  0  0
   -2.8332   -1.3401   -0.2450 O   0  0  0  0  0  1  0  0  0  0  0  0
  1  3  1  0  0  0  0
  2  1  1  0  0  0  0
  4  7  1  0  0  0  0
  4  1  1  0  0  0  0
  4  5  1  0  0  0  0
  6  4  1  0  0  0  0
  8 10  1  0  0  0  0
  8  1  1  0  0  0  0
  8 11  1  0  0  0  0
  9  8  1  0  0  0  0
 11 13  1  0  0  0  0
 12 11  1  0  0  0  0
 14 11  1  0  0  0  0
M  END
$$$$
Title Card Required
 OpenBabel07152211483D

 14 13  0  0  0  0  0  0  0  0999 V2000
   -0.8852    1.1117    0.1180 C   0  0  0  0  0  0  0  0  0  0  0  0
   -0.4652    1.8610   -0.4255 H   0  0  0  0  0  0  0  0  0  0  0  0
   -0.5324    1.4867    1.0534 H   0  0  0  0  0  0  0  0  0  0  0  0
   -0.1901   -0.2532   -0.1543 C   0  0  0  0  0  0  0  0  0  0  0  0
   -0.6660   -1.1125    0.4608 H   0  0  0  0  0  0  0  0  0  0  0  0
   -0.4214   -0.4307   -1.2663 H   0  0  0  0  0  0  0  0  0  0  0  0
    1.7920   -0.0184    0.0274 Br  0  0  0  0  0  0  0  0  0  0  0  0
   -2.5839    0.9918   -0.2297 C   0  0  0  0  0  0  0  0  0  0  0  0
   -2.5630    0.9431   -1.3144 H   0  0  0  0  0  0  0  0  0  0  0  0
   -2.9190    1.9103    0.1017 H   0  0  0  0  0  0  0  0  0  0  0  0
   -3.1362   -0.3192    0.3810 C   0  0  0  0  0  0  0  0  0  0  0  0
   -4.3064   -0.0386    0.3055 H   0  0  0  0  0  0  0  0  0  0  0  0
   -2.7343   -0.0070    1.5252 H   0  0  0  0  0  0  0  0  0  0  0  0
   -2.8233   -1.3486   -0.2491 O   0  0  0  0  0  1  0  0  0  0  0  0
  1  3  1  0  0  0  0
  2  1  1  0  0  0  0
  4  7  1  0  0  0  0
  4  1  1  0  0  0  0
  4  5  1  0  0  0  0
  6  4  1  0  0  0  0
  8 10  1  0  0  0  0
  8  1  1  0  0  0  0
  8 11  1  0  0  0  0
  9  8  1  0  0  0  0
 11 13  1  0  0  0  0
 12 11  1  0  0  0  0
 14 11  1  0  0  0  0
M  END
$$$$
Title Card Required
 OpenBabel07152211483D

 14 13  0  0  0  0  0  0  0  0999 V2000
   -0.8990    1.1019    0.1090 C   0  0  0  0  0  0  0  0  0  0  0  0
   -0.4742    1.9215   -0.4238 H   0  0  0  0  0  0  0  0  0  0  0  0
   -0.4927    1.4709    1.0833 H   0  0  0  0  0  0  0  0  0  0  0  0
   -0.2109   -0.2472   -0.1503 C   0  0  0  0  0  0  0  0  0  0  0  0
   -0.5996   -1.1482    0.4420 H   0  0  0  0  0  0  0  0  0  0  0  0
   -0.4292   -0.4593   -1.1624 H   0  0  0  0  0  0  0  0  0  0  0  0
    1.7912   -0.0193    0.0273 Br  0  0  0  0  0  0  0  0  0  0  0  0
   -2.5886    0.9979   -0.2189 C   0  0  0  0  0  0  0  0  0  0  0  0
   -2.5382    0.8817   -1.3413 H   0  0  0  0  0  0  0  0  0  0  0  0
   -2.9017    1.8975    0.1293 H   0  0  0  0  0  0  0  0  0  0  0  0
   -3.1208   -0.2900    0.3761 C   0  0  0  0  0  0  0  0  0  0  0  0
   -4.3420   -0.0663    0.2805 H   0  0  0  0  0  0  0  0  0  0  0  0
   -2.6739    0.0115    1.5106 H   0  0  0  0  0  0  0  0  0  0  0  0
   -2.8110   -1.3614   -0.2542 O   0  0  0  0  0  1  0  0  0  0  0  0
  1  3  1  0  0  0  0
  2  1  1  0  0  0  0
  4  7  1  0  0  0  0
  4  1  1  0  0  0  0
  4  5  1  0  0  0  0
  6  4  1  0  0  0  0
  8  1  1  0  0  0  0
  8 10  1  0  0  0  0
  8 11  1  0  0  0  0
  9  8  1  0  0  0  0
 11 13  1  0  0  0  0
 12 11  1  0  0  0  0
 14 11  1  0  0  0  0
M  END
$$$$
Title Card Required
 OpenBabel07152211483D

 14 13  0  0  0  0  0  0  0  0999 V2000
   -0.9152    1.0902    0.1023 C   0  0  0  0  0  0  0  0  0  0  0  0
   -0.4716    1.9920   -0.4634 H   0  0  0  0  0  0  0  0  0  0  0  0
   -0.4842    1.4447    1.1256 H   0  0  0  0  0  0  0  0  0  0  0  0
   -0.2331   -0.2406   -0.1444 C   0  0  0  0  0  0  0  0  0  0  0  0
   -0.5199   -1.1516    0.4131 H   0  0  0  0  0  0  0  0  0  0  0  0
   -0.4316   -0.5056   -1.0961 H   0  0  0  0  0  0  0  0  0  0  0  0
    1.7903   -0.0202    0.0272 Br  0  0  0  0  0  0  0  0  0  0  0  0
   -2.5822    0.9995   -0.2117 C   0  0  0  0  0  0  0  0  0  0  0  0
   -2.5269    0.8317   -1.3538 H   0  0  0  0  0  0  0  0  0  0  0  0
   -2.9238    1.9500    0.1790 H   0  0  0  0  0  0  0  0  0  0  0  0
   -3.1095   -0.2580    0.3725 C   0  0  0  0  0  0  0  0  0  0  0  0
   -4.3451   -0.0972    0.2828 H   0  0  0  0  0  0  0  0  0  0  0  0
   -2.6465   -0.0025    1.4774 H   0  0  0  0  0  0  0  0  0  0  0  0
   -2.7975   -1.3751   -0.2587 O   0  0  0  0  0  1  0  0  0  0  0  0
  1  3  1  0  0  0  0
  2  1  1  0  0  0  0
  4  7  1  0  0  0  0
  4  1  1  0  0  0  0
  4  5  1  0  0  0  0
  6  4  1  0  0  0  0
  8  1  1  0  0  0  0
  8 10  1  0  0  0  0
  8 11  1  0  0  0  0
  9  8  1  0  0  0  0
 11 13  1  0  0  0  0
 12 11  1  0  0  0  0
 14 11  1  0  0  0  0
M  END
$$$$
Title Card Required
 OpenBabel07152211483D

 14 13  0  0  0  0  0  0  0  0999 V2000
   -0.9318    1.0809    0.0979 C   0  0  0  0  0  0  0  0  0  0  0  0
   -0.4783    2.0289   -0.5107 H   0  0  0  0  0  0  0  0  0  0  0  0
   -0.5149    1.4048    1.1540 H   0  0  0  0  0  0  0  0  0  0  0  0
   -0.2547   -0.2323   -0.1346 C   0  0  0  0  0  0  0  0  0  0  0  0
   -0.4404   -1.1375    0.3948 H   0  0  0  0  0  0  0  0  0  0  0  0
   -0.4373   -0.5770   -1.1103 H   0  0  0  0  0  0  0  0  0  0  0  0
    1.7892   -0.0212    0.0270 Br  0  0  0  0  0  0  0  0  0  0  0  0
   -2.5663    1.0012   -0.2079 C   0  0  0  0  0  0  0  0  0  0  0  0
   -2.5307    0.8001   -1.3393 H   0  0  0  0  0  0  0  0  0  0  0  0
   -2.9643    2.0158    0.2262 H   0  0  0  0  0  0  0  0  0  0  0  0
   -3.1019   -0.2271    0.3695 C   0  0  0  0  0  0  0  0  0  0  0  0
   -4.3089   -0.1256    0.3119 H   0  0  0  0  0  0  0  0  0  0  0  0
   -2.6525   -0.0444    1.4312 H   0  0  0  0  0  0  0  0  0  0  0  0
   -2.7826   -1.3879   -0.2623 O   0  0  0  0  0  1  0  0  0  0  0  0
  1  3  1  0  0  0  0
  2  1  1  0  0  0  0
  4  7  1  0  0  0  0
  4  1  1  0  0  0  0
  4  5  1  0  0  0  0
  6  4  1  0  0  0  0
  8  1  1  0  0  0  0
  8 10  1  0  0  0  0
  8 11  1  0  0  0  0
  9  8  1  0  0  0  0
 11 13  1  0  0  0  0
 12 11  1  0  0  0  0
 14 11  1  0  0  0  0
M  END
$$$$
Title Card Required
 OpenBabel07152211483D

 14 13  0  0  0  0  0  0  0  0999 V2000
   -0.9475    1.0766    0.0957 C   0  0  0  0  0  0  0  0  0  0  0  0
   -0.5022    2.0100   -0.5431 H   0  0  0  0  0  0  0  0  0  0  0  0
   -0.5827    1.3568    1.1555 H   0  0  0  0  0  0  0  0  0  0  0  0
   -0.2742   -0.2230   -0.1265 C   0  0  0  0  0  0  0  0  0  0  0  0
   -0.3769   -1.1278    0.4084 H   0  0  0  0  0  0  0  0  0  0  0  0
   -0.4416   -0.6544   -1.1670 H   0  0  0  0  0  0  0  0  0  0  0  0
    1.7881   -0.0221    0.0269 Br  0  0  0  0  0  0  0  0  0  0  0  0
   -2.5438    1.0072   -0.2065 C   0  0  0  0  0  0  0  0  0  0  0  0
   -2.5484    0.7924   -1.3033 H   0  0  0  0  0  0  0  0  0  0  0  0
   -3.0003    2.0477    0.2476 H   0  0  0  0  0  0  0  0  0  0  0  0
   -3.0984   -0.2024    0.3671 C   0  0  0  0  0  0  0  0  0  0  0  0
   -4.2401   -0.1443    0.3620 H   0  0  0  0  0  0  0  0  0  0  0  0
   -2.6850   -0.1041    1.3895 H   0  0  0  0  0  0  0  0  0  0  0  0
   -2.7670   -1.3981   -0.2646 O   0  0  0  0  0  1  0  0  0  0  0  0
  1  3  1  0  0  0  0
  2  1  1  0  0  0  0
  4  7  1  0  0  0  0
  4  1  1  0  0  0  0
  4  5  1  0  0  0  0
  6  4  1  0  0  0  0
  8  1  1  0  0  0  0
  8 10  1  0  0  0  0
  8 11  1  0  0  0  0
  9  8  1  0  0  0  0
 11 13  1  0  0  0  0
 12 11  1  0  0  0  0
 14 11  1  0  0  0  0
M  END
$$$$
Title Card Required
 OpenBabel07152211483D

 14 13  0  0  0  0  0  0  0  0999 V2000
   -0.9626    1.0773    0.0947 C   0  0  0  0  0  0  0  0  0  0  0  0
   -0.5403    1.9400   -0.5531 H   0  0  0  0  0  0  0  0  0  0  0  0
   -0.6762    1.3102    1.1373 H   0  0  0  0  0  0  0  0  0  0  0  0
   -0.2912   -0.2155   -0.1250 C   0  0  0  0  0  0  0  0  0  0  0  0
   -0.3350   -1.1267    0.4554 H   0  0  0  0  0  0  0  0  0  0  0  0
   -0.4398   -0.7127   -1.2081 H   0  0  0  0  0  0  0  0  0  0  0  0
    1.7869   -0.0230    0.0267 Br  0  0  0  0  0  0  0  0  0  0  0  0
   -2.5174    1.0184   -0.2056 C   0  0  0  0  0  0  0  0  0  0  0  0
   -2.5764    0.8065   -1.2659 H   0  0  0  0  0  0  0  0  0  0  0  0
   -3.0191    2.0327    0.2364 H   0  0  0  0  0  0  0  0  0  0  0  0
   -3.0974   -0.1861    0.3645 C   0  0  0  0  0  0  0  0  0  0  0  0
   -4.1665   -0.1491    0.4231 H   0  0  0  0  0  0  0  0  0  0  0  0
   -2.7286   -0.1704    1.3750 H   0  0  0  0  0  0  0  0  0  0  0  0
   -2.7511   -1.4050   -0.2659 O   0  0  0  0  0  1  0  0  0  0  0  0
  1  3  1  0  0  0  0
  2  1  1  0  0  0  0
  4  7  1  0  0  0  0
  4  1  1  0  0  0  0
  4  5  1  0  0  0  0
  6  4  1  0  0  0  0
  8  1  1  0  0  0  0
  8 10  1  0  0  0  0
  8 11  1  0  0  0  0
  9  8  1  0  0  0  0
 11 12  1  0  0  0  0
 11 13  1  0  0  0  0
 14 11  1  0  0  0  0
M  END
$$$$
Title Card Required
 OpenBabel07152211483D

 14 13  0  0  0  0  0  0  0  0999 V2000
   -0.9780    1.0805    0.0936 C   0  0  0  0  0  0  0  0  0  0  0  0
   -0.5809    1.8445   -0.5477 H   0  0  0  0  0  0  0  0  0  0  0  0
   -0.7797    1.2749    1.1210 H   0  0  0  0  0  0  0  0  0  0  0  0
   -0.3060   -0.2127   -0.1306 C   0  0  0  0  0  0  0  0  0  0  0  0
   -0.3145   -1.1182    0.5199 H   0  0  0  0  0  0  0  0  0  0  0  0
   -0.4326   -0.7397   -1.2072 H   0  0  0  0  0  0  0  0  0  0  0  0
    1.7858   -0.0238    0.0265 Br  0  0  0  0  0  0  0  0  0  0  0  0
   -2.4896    1.0337   -0.2035 C   0  0  0  0  0  0  0  0  0  0  0  0
   -2.6111    0.8367   -1.2477 H   0  0  0  0  0  0  0  0  0  0  0  0
   -3.0173    1.9791    0.1974 H   0  0  0  0  0  0  0  0  0  0  0  0
   -3.0957   -0.1784    0.3611 C   0  0  0  0  0  0  0  0  0  0  0  0
   -4.1281   -0.1389    0.4858 H   0  0  0  0  0  0  0  0  0  0  0  0
   -2.7690   -0.2348    1.3984 H   0  0  0  0  0  0  0  0  0  0  0  0
   -2.7354   -1.4086   -0.2666 O   0  0  0  0  0  1  0  0  0  0  0  0
  1  3  1  0  0  0  0
  2  1  1  0  0  0  0
  4  7  1  0  0  0  0
  4  1  1  0  0  0  0
  4  5  1  0  0  0  0
  6  4  1  0  0  0  0
  8  1  1  0  0  0  0
  8 10  1  0  0  0  0
  8 11  1  0  0  0  0
  9  8  1  0  0  0  0
 11 12  1  0  0  0  0
 11 13  1  0  0  0  0
 14 11  1  0  0  0  0
M  END
$$$$
Title Card Required
 OpenBabel07152211483D

 14 13  0  0  0  0  0  0  0  0999 V2000
   -0.9948    1.0828    0.0923 C   0  0  0  0  0  0  0  0  0  0  0  0
   -0.6043    1.7635   -0.5488 H   0  0  0  0  0  0  0  0  0  0  0  0
   -0.8805    1.2575    1.1277 H   0  0  0  0  0  0  0  0  0  0  0  0
   -0.3188   -0.2163   -0.1413 C   0  0  0  0  0  0  0  0  0  0  0  0
   -0.3143   -1.0878    0.5846 H   0  0  0  0  0  0  0  0  0  0  0  0
   -0.4229   -0.7355   -1.1630 H   0  0  0  0  0  0  0  0  0  0  0  0
    1.7847   -0.0244    0.0263 Br  0  0  0  0  0  0  0  0  0  0  0  0
   -2.4624    1.0504   -0.2001 C   0  0  0  0  0  0  0  0  0  0  0  0
   -2.6488    0.8776   -1.2547 H   0  0  0  0  0  0  0  0  0  0  0  0
   -3.0014    1.9109    0.1440 H   0  0  0  0  0  0  0  0  0  0  0  0
   -3.0911   -0.1789    0.3577 C   0  0  0  0  0  0  0  0  0  0  0  0
   -4.1439   -0.1145    0.5440 H   0  0  0  0  0  0  0  0  0  0  0  0
   -2.8010   -0.2912    1.4478 H   0  0  0  0  0  0  0  0  0  0  0  0
   -2.7200   -1.4089   -0.2668 O   0  0  0  0  0  1  0  0  0  0  0  0
  1  3  1  0  0  0  0
  2  1  1  0  0  0  0
  4  7  1  0  0  0  0
  4  1  1  0  0  0  0
  4  5  1  0  0  0  0
  6  4  1  0  0  0  0
  8  1  1  0  0  0  0
  8 10  1  0  0  0  0
  8 11  1  0  0  0  0
  9  8  1  0  0  0  0
 11 12  1  0  0  0  0
 11 13  1  0  0  0  0
 14 11  1  0  0  0  0
M  END
$$$$
Title Card Required
 OpenBabel07152211483D

 14 13  0  0  0  0  0  0  0  0999 V2000
   -1.0136    1.0815    0.0924 C   0  0  0  0  0  0  0  0  0  0  0  0
   -0.5928    1.7300   -0.5785 H   0  0  0  0  0  0  0  0  0  0  0  0
   -0.9734    1.2588    1.1602 H   0  0  0  0  0  0  0  0  0  0  0  0
   -0.3302   -0.2259   -0.1540 C   0  0  0  0  0  0  0  0  0  0  0  0
   -0.3328   -1.0302    0.6390 H   0  0  0  0  0  0  0  0  0  0  0  0
   -0.4140   -0.7099   -1.0930 H   0  0  0  0  0  0  0  0  0  0  0  0
    1.7836   -0.0250    0.0260 Br  0  0  0  0  0  0  0  0  0  0  0  0
   -2.4363    1.0649   -0.1977 C   0  0  0  0  0  0  0  0  0  0  0  0
   -2.6849    0.9268   -1.2767 H   0  0  0  0  0  0  0  0  0  0  0  0
   -2.9896    1.8660    0.0953 H   0  0  0  0  0  0  0  0  0  0  0  0
   -3.0840   -0.1874    0.3558 C   0  0  0  0  0  0  0  0  0  0  0  0
   -4.1949   -0.0777    0.5913 H   0  0  0  0  0  0  0  0  0  0  0  0
   -2.8257   -0.3351    1.5027 H   0  0  0  0  0  0  0  0  0  0  0  0
   -2.7048   -1.4055   -0.2664 O   0  0  0  0  0  1  0  0  0  0  0  0
  1  3  1  0  0  0  0
  2  1  1  0  0  0  0
  4  7  1  0  0  0  0
  4  1  1  0  0  0  0
  4  5  1  0  0  0  0
  6  4  1  0  0  0  0
  8  1  1  0  0  0  0
  8 10  1  0  0  0  0
  8 11  1  0  0  0  0
  9  8  1  0  0  0  0
 11 12  1  0  0  0  0
 11 13  1  0  0  0  0
 14 11  1  0  0  0  0
M  END
$$$$
Title Card Required
 OpenBabel07152211483D

 14 13  0  0  0  0  0  0  0  0999 V2000
   -1.0330    1.0767    0.0946 C   0  0  0  0  0  0  0  0  0  0  0  0
   -0.5454    1.7455   -0.6307 H   0  0  0  0  0  0  0  0  0  0  0  0
   -1.0548    1.2763    1.2025 H   0  0  0  0  0  0  0  0  0  0  0  0
   -0.3405   -0.2394   -0.1635 C   0  0  0  0  0  0  0  0  0  0  0  0
   -0.3697   -0.9473    0.6790 H   0  0  0  0  0  0  0  0  0  0  0  0
   -0.4110   -0.6891   -1.0462 H   0  0  0  0  0  0  0  0  0  0  0  0
    1.7824   -0.0254    0.0257 Br  0  0  0  0  0  0  0  0  0  0  0  0
   -2.4120    1.0737   -0.1990 C   0  0  0  0  0  0  0  0  0  0  0  0
   -2.7125    0.9836   -1.2987 H   0  0  0  0  0  0  0  0  0  0  0  0
   -3.0019    1.8808    0.0683 H   0  0  0  0  0  0  0  0  0  0  0  0
   -3.0758   -0.2046    0.3568 C   0  0  0  0  0  0  0  0  0  0  0  0
   -4.2497   -0.0313    0.6186 H   0  0  0  0  0  0  0  0  0  0  0  0
   -2.8443   -0.3616    1.5464 H   0  0  0  0  0  0  0  0  0  0  0  0
   -2.6893   -1.3978   -0.2652 O   0  0  0  0  0  1  0  0  0  0  0  0
  1  3  1  0  0  0  0
  2  1  1  0  0  0  0
  4  7  1  0  0  0  0
  4  1  1  0  0  0  0
  4  5  1  0  0  0  0
  6  4  1  0  0  0  0
  8 10  1  0  0  0  0
  8  1  1  0  0  0  0
  8 11  1  0  0  0  0
  9  8  1  0  0  0  0
 11 12  1  0  0  0  0
 11 13  1  0  0  0  0
 14 11  1  0  0  0  0
M  END
$$$$
Title Card Required
 OpenBabel07152211483D

 14 13  0  0  0  0  0  0  0  0999 V2000
   -1.0478    1.0716    0.0982 C   0  0  0  0  0  0  0  0  0  0  0  0
   -0.4825    1.7841   -0.6668 H   0  0  0  0  0  0  0  0  0  0  0  0
   -1.1144    1.3055    1.2291 H   0  0  0  0  0  0  0  0  0  0  0  0
   -0.3500   -0.2529   -0.1638 C   0  0  0  0  0  0  0  0  0  0  0  0
   -0.4250   -0.8545    0.7089 H   0  0  0  0  0  0  0  0  0  0  0  0
   -0.4204   -0.7069   -1.0845 H   0  0  0  0  0  0  0  0  0  0  0  0
    1.7809   -0.0258    0.0252 Br  0  0  0  0  0  0  0  0  0  0  0  0
   -2.3952    1.0761   -0.2067 C   0  0  0  0  0  0  0  0  0  0  0  0
   -2.7216    1.0442   -1.3061 H   0  0  0  0  0  0  0  0  0  0  0  0
   -3.0321    1.9543    0.0687 H   0  0  0  0  0  0  0  0  0  0  0  0
   -3.0679   -0.2313    0.3624 C   0  0  0  0  0  0  0  0  0  0  0  0
   -4.2804    0.0184    0.6139 H   0  0  0  0  0  0  0  0  0  0  0  0
   -2.8564   -0.3642    1.5628 H   0  0  0  0  0  0  0  0  0  0  0  0
   -2.6735   -1.3841   -0.2631 O   0  0  0  0  0  1  0  0  0  0  0  0
  1  3  1  0  0  0  0
  2  1  1  0  0  0  0
  4  7  1  0  0  0  0
  4  1  1  0  0  0  0
  4  5  1  0  0  0  0
  6  4  1  0  0  0  0
  8 10  1  0  0  0  0
  8  1  1  0  0  0  0
  8 11  1  0  0  0  0
  9  8  1  0  0  0  0
 11 12  1  0  0  0  0
 11 13  1  0  0  0  0
 14 11  1  0  0  0  0
M  END
$$$$
Title Card Required
 OpenBabel07152211483D

 14 13  0  0  0  0  0  0  0  0999 V2000
   -1.0512    1.0700    0.1018 C   0  0  0  0  0  0  0  0  0  0  0  0
   -0.4358    1.8146   -0.6473 H   0  0  0  0  0  0  0  0  0  0  0  0
   -1.1354    1.3365    1.2180 H   0  0  0  0  0  0  0  0  0  0  0  0
   -0.3580   -0.2638   -0.1577 C   0  0  0  0  0  0  0  0  0  0  0  0
   -0.4917   -0.7908    0.7443 H   0  0  0  0  0  0  0  0  0  0  0  0
   -0.4415   -0.7526   -1.1770 H   0  0  0  0  0  0  0  0  0  0  0  0
    1.7793   -0.0261    0.0247 Br  0  0  0  0  0  0  0  0  0  0  0  0
   -2.3951    1.0754   -0.2203 C   0  0  0  0  0  0  0  0  0  0  0  0
   -2.7053    1.0961   -1.2937 H   0  0  0  0  0  0  0  0  0  0  0  0
   -3.0417    2.0332    0.0874 H   0  0  0  0  0  0  0  0  0  0  0  0
   -3.0617   -0.2639    0.3724 C   0  0  0  0  0  0  0  0  0  0  0  0
   -4.2679    0.0564    0.5711 H   0  0  0  0  0  0  0  0  0  0  0  0
   -2.8595   -0.3409    1.5428 H   0  0  0  0  0  0  0  0  0  0  0  0
   -2.6586   -1.3654   -0.2599 O   0  0  0  0  0  1  0  0  0  0  0  0
  1  3  1  0  0  0  0
  2  1  1  0  0  0  0
  4  7  1  0  0  0  0
  4  1  1  0  0  0  0
  4  5  1  0  0  0  0
  6  4  1  0  0  0  0
  8 10  1  0  0  0  0
  8  1  1  0  0  0  0
  8 11  1  0  0  0  0
  9  8  1  0  0  0  0
 11 12  1  0  0  0  0
 11 13  1  0  0  0  0
 14 11  1  0  0  0  0
M  END
$$$$
Title Card Required
 OpenBabel07152211483D

 14 13  0  0  0  0  0  0  0  0999 V2000
   -1.0423    1.0733    0.1037 C   0  0  0  0  0  0  0  0  0  0  0  0
   -0.4212    1.8218   -0.5692 H   0  0  0  0  0  0  0  0  0  0  0  0
   -1.1153    1.3614    1.1752 H   0  0  0  0  0  0  0  0  0  0  0  0
   -0.3643   -0.2727   -0.1526 C   0  0  0  0  0  0  0  0  0  0  0  0
   -0.5584   -0.7765    0.7875 H   0  0  0  0  0  0  0  0  0  0  0  0
   -0.4661   -0.7859   -1.2327 H   0  0  0  0  0  0  0  0  0  0  0  0
    1.7775   -0.0263    0.0241 Br  0  0  0  0  0  0  0  0  0  0  0  0
   -2.4123    1.0748   -0.2360 C   0  0  0  0  0  0  0  0  0  0  0  0
   -2.6724    1.1303   -1.2798 H   0  0  0  0  0  0  0  0  0  0  0  0
   -3.0110    2.0733    0.1107 H   0  0  0  0  0  0  0  0  0  0  0  0
   -3.0581   -0.2955    0.3846 C   0  0  0  0  0  0  0  0  0  0  0  0
   -4.2174    0.0707    0.4997 H   0  0  0  0  0  0  0  0  0  0  0  0
   -2.8524   -0.3006    1.5014 H   0  0  0  0  0  0  0  0  0  0  0  0
   -2.6456   -1.3449   -0.2564 O   0  0  0  0  0  1  0  0  0  0  0  0
  1  3  1  0  0  0  0
  2  1  1  0  0  0  0
  4  7  1  0  0  0  0
  4  1  1  0  0  0  0
  4  5  1  0  0  0  0
  6  4  1  0  0  0  0
  8  1  1  0  0  0  0
  8 10  1  0  0  0  0
  8 11  1  0  0  0  0
  9  8  1  0  0  0  0
 11 12  1  0  0  0  0
 11 13  1  0  0  0  0
 14 11  1  0  0  0  0
M  END
$$$$
Title Card Required
 OpenBabel07152211483D

 14 13  0  0  0  0  0  0  0  0999 V2000
   -1.0263    1.0798    0.1028 C   0  0  0  0  0  0  0  0  0  0  0  0
   -0.4301    1.8135   -0.4648 H   0  0  0  0  0  0  0  0  0  0  0  0
   -1.0680    1.3791    1.1316 H   0  0  0  0  0  0  0  0  0  0  0  0
   -0.3695   -0.2810   -0.1498 C   0  0  0  0  0  0  0  0  0  0  0  0
   -0.6124   -0.7963    0.8149 H   0  0  0  0  0  0  0  0  0  0  0  0
   -0.4875   -0.7926   -1.2217 H   0  0  0  0  0  0  0  0  0  0  0  0
    1.7757   -0.0265    0.0236 Br  0  0  0  0  0  0  0  0  0  0  0  0
   -2.4383    1.0754   -0.2489 C   0  0  0  0  0  0  0  0  0  0  0  0
   -2.6396    1.1464   -1.2888 H   0  0  0  0  0  0  0  0  0  0  0  0
   -2.9528    2.0694    0.1304 H   0  0  0  0  0  0  0  0  0  0  0  0
   -3.0571   -0.3201    0.3954 C   0  0  0  0  0  0  0  0  0  0  0  0
   -4.1540    0.0599    0.4197 H   0  0  0  0  0  0  0  0  0  0  0  0
   -2.8355   -0.2563    1.4688 H   0  0  0  0  0  0  0  0  0  0  0  0
   -2.6346   -1.3266   -0.2536 O   0  0  0  0  0  1  0  0  0  0  0  0
  1  3  1  0  0  0  0
  2  1  1  0  0  0  0
  4  7  1  0  0  0  0
  4  1  1  0  0  0  0
  4  5  1  0  0  0  0
  6  4  1  0  0  0  0
  8  1  1  0  0  0  0
  8 10  1  0  0  0  0
  8 11  1  0  0  0  0
  9  8  1  0  0  0  0
 11 12  1  0  0  0  0
 11 13  1  0  0  0  0
 14 11  1  0  0  0  0
M  END
$$$$
Title Card Required
 OpenBabel07152211483D

 14 13  0  0  0  0  0  0  0  0999 V2000
   -1.0080    1.0865    0.0993 C   0  0  0  0  0  0  0  0  0  0  0  0
   -0.4395    1.8129   -0.3651 H   0  0  0  0  0  0  0  0  0  0  0  0
   -1.0050    1.3933    1.1106 H   0  0  0  0  0  0  0  0  0  0  0  0
   -0.3744   -0.2894   -0.1471 C   0  0  0  0  0  0  0  0  0  0  0  0
   -0.6510   -0.8320    0.8136 H   0  0  0  0  0  0  0  0  0  0  0  0
   -0.5048   -0.7790   -1.1588 H   0  0  0  0  0  0  0  0  0  0  0  0
    1.7738   -0.0267    0.0231 Br  0  0  0  0  0  0  0  0  0  0  0  0
   -2.4673    1.0773   -0.2582 C   0  0  0  0  0  0  0  0  0  0  0  0
   -2.6124    1.1496   -1.3247 H   0  0  0  0  0  0  0  0  0  0  0  0
   -2.8834    2.0376    0.1464 H   0  0  0  0  0  0  0  0  0  0  0  0
   -3.0580   -0.3375    0.4038 C   0  0  0  0  0  0  0  0  0  0  0  0
   -4.0995    0.0299    0.3396 H   0  0  0  0  0  0  0  0  0  0  0  0
   -2.8097   -0.2116    1.4608 H   0  0  0  0  0  0  0  0  0  0  0  0
   -2.6241   -1.3113   -0.2519 O   0  0  0  0  0  1  0  0  0  0  0  0
  1  3  1  0  0  0  0
  2  1  1  0  0  0  0
  4  7  1  0  0  0  0
  4  1  1  0  0  0  0
  4  5  1  0  0  0  0
  6  4  1  0  0  0  0
  8  1  1  0  0  0  0
  8 10  1  0  0  0  0
  8 11  1  0  0  0  0
  9  8  1  0  0  0  0
 11 13  1  0  0  0  0
 12 11  1  0  0  0  0
 14 11  1  0  0  0  0
M  END
$$$$
Title Card Required
 OpenBabel07152211483D

 14 13  0  0  0  0  0  0  0  0999 V2000
   -0.9900    1.0905    0.0942 C   0  0  0  0  0  0  0  0  0  0  0  0
   -0.4260    1.8470   -0.2932 H   0  0  0  0  0  0  0  0  0  0  0  0
   -0.9310    1.4032    1.1215 H   0  0  0  0  0  0  0  0  0  0  0  0
   -0.3796   -0.2977   -0.1420 C   0  0  0  0  0  0  0  0  0  0  0  0
   -0.6736   -0.8765    0.7798 H   0  0  0  0  0  0  0  0  0  0  0  0
   -0.5197   -0.7574   -1.0697 H   0  0  0  0  0  0  0  0  0  0  0  0
    1.7718   -0.0269    0.0226 Br  0  0  0  0  0  0  0  0  0  0  0  0
   -2.4969    1.0795   -0.2654 C   0  0  0  0  0  0  0  0  0  0  0  0
   -2.5909    1.1423   -1.3760 H   0  0  0  0  0  0  0  0  0  0  0  0
   -2.8165    1.9987    0.1643 H   0  0  0  0  0  0  0  0  0  0  0  0
   -3.0597   -0.3482    0.4103 C   0  0  0  0  0  0  0  0  0  0  0  0
   -4.0731   -0.0152    0.2619 H   0  0  0  0  0  0  0  0  0  0  0  0
   -2.7766   -0.1662    1.4784 H   0  0  0  0  0  0  0  0  0  0  0  0
   -2.6126   -1.2992   -0.2516 O   0  0  0  0  0  1  0  0  0  0  0  0
  1  3  1  0  0  0  0
  2  1  1  0  0  0  0
  4  7  1  0  0  0  0
  4  1  1  0  0  0  0
  4  5  1  0  0  0  0
  6  4  1  0  0  0  0
  8  1  1  0  0  0  0
  8 10  1  0  0  0  0
  8 11  1  0  0  0  0
  9  8  1  0  0  0  0
 11 13  1  0  0  0  0
 12 11  1  0  0  0  0
 14 11  1  0  0  0  0
M  END
$$$$
Title Card Required
 OpenBabel07152211483D

 14 13  0  0  0  0  0  0  0  0999 V2000
   -0.9732    1.0910    0.0888 C   0  0  0  0  0  0  0  0  0  0  0  0
   -0.3808    1.9250   -0.2609 H   0  0  0  0  0  0  0  0  0  0  0  0
   -0.8512    1.4023    1.1579 H   0  0  0  0  0  0  0  0  0  0  0  0
   -0.3845   -0.3038   -0.1302 C   0  0  0  0  0  0  0  0  0  0  0  0
   -0.6792   -0.9280    0.7168 H   0  0  0  0  0  0  0  0  0  0  0  0
   -0.5372   -0.7522   -1.0060 H   0  0  0  0  0  0  0  0  0  0  0  0
    1.7694   -0.0271    0.0220 Br  0  0  0  0  0  0  0  0  0  0  0  0
   -2.5249    1.0803   -0.2727 C   0  0  0  0  0  0  0  0  0  0  0  0
   -2.5760    1.1252   -1.4219 H   0  0  0  0  0  0  0  0  0  0  0  0
   -2.7683    1.9823    0.1940 H   0  0  0  0  0  0  0  0  0  0  0  0
   -3.0616   -0.3510    0.4154 C   0  0  0  0  0  0  0  0  0  0  0  0
   -4.0920   -0.0739    0.1916 H   0  0  0  0  0  0  0  0  0  0  0  0
   -2.7428   -0.1227    1.5109 H   0  0  0  0  0  0  0  0  0  0  0  0
   -2.5988   -1.2910   -0.2530 O   0  0  0  0  0  1  0  0  0  0  0  0
  1  3  1  0  0  0  0
  2  1  1  0  0  0  0
  4  7  1  0  0  0  0
  4  1  1  0  0  0  0
  4  5  1  0  0  0  0
  6  4  1  0  0  0  0
  8  1  1  0  0  0  0
  8 10  1  0  0  0  0
  8 11  1  0  0  0  0
  9  8  1  0  0  0  0
 11 13  1  0  0  0  0
 12 11  1  0  0  0  0
 14 11  1  0  0  0  0
M  END
$$$$
Title Card Required
 OpenBabel07152211483D

 14 13  0  0  0  0  0  0  0  0999 V2000
   -0.9568    1.0905    0.0844 C   0  0  0  0  0  0  0  0  0  0  0  0
   -0.3262    2.0120   -0.2618 H   0  0  0  0  0  0  0  0  0  0  0  0
   -0.7764    1.3817    1.1969 H   0  0  0  0  0  0  0  0  0  0  0  0
   -0.3877   -0.3047   -0.1099 C   0  0  0  0  0  0  0  0  0  0  0  0
   -0.6702   -0.9905    0.6454 H   0  0  0  0  0  0  0  0  0  0  0  0
   -0.5612   -0.7841   -1.0174 H   0  0  0  0  0  0  0  0  0  0  0  0
    1.7667   -0.0275    0.0214 Br  0  0  0  0  0  0  0  0  0  0  0  0
   -2.5482    1.0785   -0.2812 C   0  0  0  0  0  0  0  0  0  0  0  0
   -2.5711    1.1009   -1.4390 H   0  0  0  0  0  0  0  0  0  0  0  0
   -2.7517    2.0067    0.2386 H   0  0  0  0  0  0  0  0  0  0  0  0
   -3.0640   -0.3445    0.4193 C   0  0  0  0  0  0  0  0  0  0  0  0
   -4.1530   -0.1460    0.1419 H   0  0  0  0  0  0  0  0  0  0  0  0
   -2.7202   -0.0885    1.5396 H   0  0  0  0  0  0  0  0  0  0  0  0
   -2.5823   -1.2875   -0.2560 O   0  0  0  0  0  1  0  0  0  0  0  0
  1  3  1  0  0  0  0
  2  1  1  0  0  0  0
  4  7  1  0  0  0  0
  4  1  1  0  0  0  0
  4  5  1  0  0  0  0
  6  4  1  0  0  0  0
  8  1  1  0  0  0  0
  8 10  1  0  0  0  0
  8 11  1  0  0  0  0
  9  8  1  0  0  0  0
 11 13  1  0  0  0  0
 12 11  1  0  0  0  0
 14 11  1  0  0  0  0
M  END
$$$$
Title Card Required
 OpenBabel07152211483D

 14 13  0  0  0  0  0  0  0  0999 V2000
   -0.9394    1.0924    0.0824 C   0  0  0  0  0  0  0  0  0  0  0  0
   -0.2912    2.0615   -0.2831 H   0  0  0  0  0  0  0  0  0  0  0  0
   -0.7185    1.3382    1.2125 H   0  0  0  0  0  0  0  0  0  0  0  0
   -0.3883   -0.3011   -0.0870 C   0  0  0  0  0  0  0  0  0  0  0  0
   -0.6534   -1.0728    0.5948 H   0  0  0  0  0  0  0  0  0  0  0  0
   -0.5830   -0.8314   -1.0766 H   0  0  0  0  0  0  0  0  0  0  0  0
    1.7637   -0.0280    0.0208 Br  0  0  0  0  0  0  0  0  0  0  0  0
   -2.5652    1.0758   -0.2893 C   0  0  0  0  0  0  0  0  0  0  0  0
   -2.5801    1.0730   -1.4168 H   0  0  0  0  0  0  0  0  0  0  0  0
   -2.7673    2.0511    0.2803 H   0  0  0  0  0  0  0  0  0  0  0  0
   -3.0684   -0.3280    0.4204 C   0  0  0  0  0  0  0  0  0  0  0  0
   -4.2291   -0.2309    0.1289 H   0  0  0  0  0  0  0  0  0  0  0  0
   -2.7203   -0.0709    1.5474 H   0  0  0  0  0  0  0  0  0  0  0  0
   -2.5628   -1.2884   -0.2597 O   0  0  0  0  0  1  0  0  0  0  0  0
  1  3  1  0  0  0  0
  2  1  1  0  0  0  0
  4  7  1  0  0  0  0
  4  1  1  0  0  0  0
  4  5  1  0  0  0  0
  6  4  1  0  0  0  0
  8  1  1  0  0  0  0
  8 10  1  0  0  0  0
  8 11  1  0  0  0  0
  9  8  1  0  0  0  0
 11 13  1  0  0  0  0
 12 11  1  0  0  0  0
 14 11  1  0  0  0  0
M  END
$$$$
Title Card Required
 OpenBabel07152211483D

 14 13  0  0  0  0  0  0  0  0999 V2000
   -0.9204    1.0986    0.0842 C   0  0  0  0  0  0  0  0  0  0  0  0
   -0.2958    2.0384   -0.3163 H   0  0  0  0  0  0  0  0  0  0  0  0
   -0.6883    1.2756    1.1878 H   0  0  0  0  0  0  0  0  0  0  0  0
   -0.3862   -0.2968   -0.0688 C   0  0  0  0  0  0  0  0  0  0  0  0
   -0.6304   -1.1677    0.5742 H   0  0  0  0  0  0  0  0  0  0  0  0
   -0.5875   -0.8524   -1.1201 H   0  0  0  0  0  0  0  0  0  0  0  0
    1.7601   -0.0287    0.0201 Br  0  0  0  0  0  0  0  0  0  0  0  0
   -2.5751    1.0747   -0.2922 C   0  0  0  0  0  0  0  0  0  0  0  0
   -2.6074    1.0454   -1.3680 H   0  0  0  0  0  0  0  0  0  0  0  0
   -2.8113    2.0779    0.2911 H   0  0  0  0  0  0  0  0  0  0  0  0
   -3.0765   -0.3020    0.4162 C   0  0  0  0  0  0  0  0  0  0  0  0
   -4.2873   -0.3234    0.1677 H   0  0  0  0  0  0  0  0  0  0  0  0
   -2.7523   -0.0754    1.5234 H   0  0  0  0  0  0  0  0  0  0  0  0
   -2.5402   -1.2927   -0.2631 O   0  0  0  0  0  1  0  0  0  0  0  0
  1  3  1  0  0  0  0
  2  1  1  0  0  0  0
  4  7  1  0  0  0  0
  4  1  1  0  0  0  0
  4  5  1  0  0  0  0
  6  4  1  0  0  0  0
  8  1  1  0  0  0  0
  8 10  1  0  0  0  0
  8 11  1  0  0  0  0
  9  8  1  0  0  0  0
 11 13  1  0  0  0  0
 12 11  1  0  0  0  0
 14 11  1  0  0  0  0
M  END
$$$$
Title Card Required
 OpenBabel07152211483D

 14 13  0  0  0  0  0  0  0  0999 V2000
   -0.9048    1.1066    0.0886 C   0  0  0  0  0  0  0  0  0  0  0  0
   -0.3347    1.9515   -0.3518 H   0  0  0  0  0  0  0  0  0  0  0  0
   -0.6907    1.2204    1.1452 H   0  0  0  0  0  0  0  0  0  0  0  0
   -0.3825   -0.2975   -0.0610 C   0  0  0  0  0  0  0  0  0  0  0  0
   -0.6020   -1.2255    0.5696 H   0  0  0  0  0  0  0  0  0  0  0  0
   -0.5681   -0.8243   -1.1060 H   0  0  0  0  0  0  0  0  0  0  0  0
    1.7567   -0.0294    0.0195 Br  0  0  0  0  0  0  0  0  0  0  0  0
   -2.5771    1.0766   -0.2852 C   0  0  0  0  0  0  0  0  0  0  0  0
   -2.6478    1.0249   -1.3398 H   0  0  0  0  0  0  0  0  0  0  0  0
   -2.8674    2.0630    0.2574 H   0  0  0  0  0  0  0  0  0  0  0  0
   -3.0870   -0.2746    0.4060 C   0  0  0  0  0  0  0  0  0  0  0  0
   -4.2972   -0.3954    0.2476 H   0  0  0  0  0  0  0  0  0  0  0  0
   -2.8066   -0.0981    1.4817 H   0  0  0  0  0  0  0  0  0  0  0  0
   -2.5191   -1.2976   -0.2645 O   0  0  0  0  0  1  0  0  0  0  0  0
  1  3  1  0  0  0  0
  2  1  1  0  0  0  0
  4  7  1  0  0  0  0
  4  1  1  0  0  0  0
  4  5  1  0  0  0  0
  6  4  1  0  0  0  0
  8  1  1  0  0  0  0
  8 10  1  0  0  0  0
  8 11  1  0  0  0  0
  9  8  1  0  0  0  0
 11 13  1  0  0  0  0
 12 11  1  0  0  0  0
 14 11  1  0  0  0  0
M  END
$$$$
Title Card Required
 OpenBabel07152211483D

 14 13  0  0  0  0  0  0  0  0999 V2000
   -0.8956    1.1115    0.0929 C   0  0  0  0  0  0  0  0  0  0  0  0
   -0.3734    1.8578   -0.3970 H   0  0  0  0  0  0  0  0  0  0  0  0
   -0.7099    1.1889    1.1260 H   0  0  0  0  0  0  0  0  0  0  0  0
   -0.3781   -0.3034   -0.0609 C   0  0  0  0  0  0  0  0  0  0  0  0
   -0.5715   -1.2327    0.5674 H   0  0  0  0  0  0  0  0  0  0  0  0
   -0.5344   -0.7658   -1.0535 H   0  0  0  0  0  0  0  0  0  0  0  0
    1.7538   -0.0301    0.0190 Br  0  0  0  0  0  0  0  0  0  0  0  0
   -2.5738    1.0799   -0.2711 C   0  0  0  0  0  0  0  0  0  0  0  0
   -2.6921    1.0110   -1.3437 H   0  0  0  0  0  0  0  0  0  0  0  0
   -2.9241    2.0237    0.1997 H   0  0  0  0  0  0  0  0  0  0  0  0
   -3.0981   -0.2510    0.3915 C   0  0  0  0  0  0  0  0  0  0  0  0
   -4.2683   -0.4382    0.3394 H   0  0  0  0  0  0  0  0  0  0  0  0
   -2.8636   -0.1259    1.4501 H   0  0  0  0  0  0  0  0  0  0  0  0
   -2.5010   -1.3012   -0.2642 O   0  0  0  0  0  1  0  0  0  0  0  0
  1  3  1  0  0  0  0
  2  1  1  0  0  0  0
  4  7  1  0  0  0  0
  4  1  1  0  0  0  0
  4  5  1  0  0  0  0
  6  4  1  0  0  0  0
  8  1  1  0  0  0  0
  8 10  1  0  0  0  0
  8 11  1  0  0  0  0
  9  8  1  0  0  0  0
 11 13  1  0  0  0  0
 12 11  1  0  0  0  0
 14 11  1  0  0  0  0
M  END
$$$$
Title Card Required
 OpenBabel07152211483D

 14 13  0  0  0  0  0  0  0  0999 V2000
   -0.8937    1.1105    0.0976 C   0  0  0  0  0  0  0  0  0  0  0  0
   -0.3879    1.7926   -0.4696 H   0  0  0  0  0  0  0  0  0  0  0  0
   -0.7362    1.1825    1.1434 H   0  0  0  0  0  0  0  0  0  0  0  0
   -0.3730   -0.3121   -0.0638 C   0  0  0  0  0  0  0  0  0  0  0  0
   -0.5398   -1.2019    0.5675 H   0  0  0  0  0  0  0  0  0  0  0  0
   -0.4934   -0.6991   -1.0022 H   0  0  0  0  0  0  0  0  0  0  0  0
    1.7509   -0.0308    0.0186 Br  0  0  0  0  0  0  0  0  0  0  0  0
   -2.5667    1.0829   -0.2535 C   0  0  0  0  0  0  0  0  0  0  0  0
   -2.7361    1.0014   -1.3581 H   0  0  0  0  0  0  0  0  0  0  0  0
   -2.9858    1.9842    0.1353 H   0  0  0  0  0  0  0  0  0  0  0  0
   -3.1095   -0.2308    0.3731 C   0  0  0  0  0  0  0  0  0  0  0  0
   -4.2192   -0.4570    0.4309 H   0  0  0  0  0  0  0  0  0  0  0  0
   -2.9156   -0.1538    1.4413 H   0  0  0  0  0  0  0  0  0  0  0  0
   -2.4842   -1.3035   -0.2626 O   0  0  0  0  0  1  0  0  0  0  0  0
  1  3  1  0  0  0  0
  2  1  1  0  0  0  0
  4  7  1  0  0  0  0
  4  1  1  0  0  0  0
  4  5  1  0  0  0  0
  6  4  1  0  0  0  0
  8  1  1  0  0  0  0
  8 10  1  0  0  0  0
  8 11  1  0  0  0  0
  9  8  1  0  0  0  0
 11 12  1  0  0  0  0
 11 13  1  0  0  0  0
 14 11  1  0  0  0  0
M  END
$$$$
Title Card Required
 OpenBabel07152211483D

 14 13  0  0  0  0  0  0  0  0999 V2000
   -0.8994    1.1030    0.1036 C   0  0  0  0  0  0  0  0  0  0  0  0
   -0.3749    1.7606   -0.5723 H   0  0  0  0  0  0  0  0  0  0  0  0
   -0.7666    1.2031    1.1879 H   0  0  0  0  0  0  0  0  0  0  0  0
   -0.3669   -0.3208   -0.0659 C   0  0  0  0  0  0  0  0  0  0  0  0
   -0.5087   -1.1493    0.5782 H   0  0  0  0  0  0  0  0  0  0  0  0
   -0.4507   -0.6469   -1.0042 H   0  0  0  0  0  0  0  0  0  0  0  0
    1.7481   -0.0316    0.0181 Br  0  0  0  0  0  0  0  0  0  0  0  0
   -2.5560    1.0838   -0.2354 C   0  0  0  0  0  0  0  0  0  0  0  0
   -2.7739    0.9954   -1.3622 H   0  0  0  0  0  0  0  0  0  0  0  0
   -3.0593    1.9656    0.0764 H   0  0  0  0  0  0  0  0  0  0  0  0
   -3.1196   -0.2141    0.3516 C   0  0  0  0  0  0  0  0  0  0  0  0
   -4.1712   -0.4548    0.5119 H   0  0  0  0  0  0  0  0  0  0  0  0
   -2.9565   -0.1787    1.4568 H   0  0  0  0  0  0  0  0  0  0  0  0
   -2.4681   -1.3039   -0.2598 O   0  0  0  0  0  1  0  0  0  0  0  0
  1  3  1  0  0  0  0
  2  1  1  0  0  0  0
  4  7  1  0  0  0  0
  4  1  1  0  0  0  0
  4  5  1  0  0  0  0
  6  4  1  0  0  0  0
  8 10  1  0  0  0  0
  8  1  1  0  0  0  0
  8 11  1  0  0  0  0
  9  8  1  0  0  0  0
 11 12  1  0  0  0  0
 11 13  1  0  0  0  0
 14 11  1  0  0  0  0
M  END
$$$$
Title Card Required
 OpenBabel07152211483D

 14 13  0  0  0  0  0  0  0  0999 V2000
   -0.9112    1.0911    0.1104 C   0  0  0  0  0  0  0  0  0  0  0  0
   -0.3544    1.7399   -0.6762 H   0  0  0  0  0  0  0  0  0  0  0  0
   -0.7990    1.2511    1.2335 H   0  0  0  0  0  0  0  0  0  0  0  0
   -0.3597   -0.3264   -0.0662 C   0  0  0  0  0  0  0  0  0  0  0  0
   -0.4824   -1.0998    0.6137 H   0  0  0  0  0  0  0  0  0  0  0  0
   -0.4090   -0.6203   -1.0810 H   0  0  0  0  0  0  0  0  0  0  0  0
    1.7453   -0.0323    0.0177 Br  0  0  0  0  0  0  0  0  0  0  0  0
   -2.5427    1.0823   -0.2187 C   0  0  0  0  0  0  0  0  0  0  0  0
   -2.7964    0.9924   -1.3430 H   0  0  0  0  0  0  0  0  0  0  0  0
   -3.1419    1.9737    0.0299 H   0  0  0  0  0  0  0  0  0  0  0  0
   -3.1259   -0.2018    0.3293 C   0  0  0  0  0  0  0  0  0  0  0  0
   -4.1511   -0.4344    0.5712 H   0  0  0  0  0  0  0  0  0  0  0  0
   -2.9798   -0.1969    1.4862 H   0  0  0  0  0  0  0  0  0  0  0  0
   -2.4528   -1.3020   -0.2559 O   0  0  0  0  0  1  0  0  0  0  0  0
  1  3  1  0  0  0  0
  2  1  1  0  0  0  0
  4  7  1  0  0  0  0
  4  1  1  0  0  0  0
  4  5  1  0  0  0  0
  6  4  1  0  0  0  0
  8 10  1  0  0  0  0
  8  1  1  0  0  0  0
  8 11  1  0  0  0  0
  9  8  1  0  0  0  0
 11 12  1  0  0  0  0
 11 13  1  0  0  0  0
 14 11  1  0  0  0  0
M  END
$$$$
Title Card Required
 OpenBabel07152211483D

 14 13  0  0  0  0  0  0  0  0999 V2000
   -0.9285    1.0767    0.1172 C   0  0  0  0  0  0  0  0  0  0  0  0
   -0.3502    1.7066   -0.7469 H   0  0  0  0  0  0  0  0  0  0  0  0
   -0.8319    1.3261    1.2525 H   0  0  0  0  0  0  0  0  0  0  0  0
   -0.3516   -0.3287   -0.0697 C   0  0  0  0  0  0  0  0  0  0  0  0
   -0.4627   -1.0707    0.6849 H   0  0  0  0  0  0  0  0  0  0  0  0
   -0.3660   -0.6089   -1.1864 H   0  0  0  0  0  0  0  0  0  0  0  0
    1.7424   -0.0331    0.0173 Br  0  0  0  0  0  0  0  0  0  0  0  0
   -2.5281    1.0799   -0.2037 C   0  0  0  0  0  0  0  0  0  0  0  0
   -2.7940    0.9914   -1.2969 H   0  0  0  0  0  0  0  0  0  0  0  0
   -3.2179    1.9924   -0.0047 H   0  0  0  0  0  0  0  0  0  0  0  0
   -3.1266   -0.1956    0.3079 C   0  0  0  0  0  0  0  0  0  0  0  0
   -4.1747   -0.3938    0.5990 H   0  0  0  0  0  0  0  0  0  0  0  0
   -2.9806   -0.2044    1.5143 H   0  0  0  0  0  0  0  0  0  0  0  0
   -2.4380   -1.2968   -0.2505 O   0  0  0  0  0  1  0  0  0  0  0  0
  1  3  1  0  0  0  0
  2  1  1  0  0  0  0
  4  7  1  0  0  0  0
  4  1  1  0  0  0  0
  4  5  1  0  0  0  0
  6  4  1  0  0  0  0
  8 10  1  0  0  0  0
  8  1  1  0  0  0  0
  8 11  1  0  0  0  0
  9  8  1  0  0  0  0
 11 12  1  0  0  0  0
 11 13  1  0  0  0  0
 14 11  1  0  0  0  0
M  END
$$$$
Title Card Required
 OpenBabel07152211483D

 14 13  0  0  0  0  0  0  0  0999 V2000
   -0.9511    1.0624    0.1226 C   0  0  0  0  0  0  0  0  0  0  0  0
   -0.3841    1.6480   -0.7468 H   0  0  0  0  0  0  0  0  0  0  0  0
   -0.8596    1.4202    1.2158 H   0  0  0  0  0  0  0  0  0  0  0  0
   -0.3433   -0.3294   -0.0807 C   0  0  0  0  0  0  0  0  0  0  0  0
   -0.4482   -1.0556    0.7711 H   0  0  0  0  0  0  0  0  0  0  0  0
   -0.3267   -0.6022   -1.2445 H   0  0  0  0  0  0  0  0  0  0  0  0
    1.7395   -0.0340    0.0169 Br  0  0  0  0  0  0  0  0  0  0  0  0
   -2.5148    1.0790   -0.1901 C   0  0  0  0  0  0  0  0  0  0  0  0
   -2.7565    0.9903   -1.2405 H   0  0  0  0  0  0  0  0  0  0  0  0
   -3.2548    1.9963   -0.0225 H   0  0  0  0  0  0  0  0  0  0  0  0
   -3.1208   -0.1989    0.2915 C   0  0  0  0  0  0  0  0  0  0  0  0
   -4.2325   -0.3271    0.5753 H   0  0  0  0  0  0  0  0  0  0  0  0
   -2.9551   -0.1962    1.5211 H   0  0  0  0  0  0  0  0  0  0  0  0
   -2.4248   -1.2866   -0.2433 O   0  0  0  0  0  1  0  0  0  0  0  0
  1  3  1  0  0  0  0
  2  1  1  0  0  0  0
  4  7  1  0  0  0  0
  4  1  1  0  0  0  0
  4  5  1  0  0  0  0
  6  4  1  0  0  0  0
  8 10  1  0  0  0  0
  8  1  1  0  0  0  0
  8 11  1  0  0  0  0
  9  8  1  0  0  0  0
 11 12  1  0  0  0  0
 11 13  1  0  0  0  0
 14 11  1  0  0  0  0
M  END
$$$$
Title Card Required
 OpenBabel07152211483D

 14 13  0  0  0  0  0  0  0  0999 V2000
   -0.9736    1.0520    0.1248 C   0  0  0  0  0  0  0  0  0  0  0  0
   -0.4461    1.5870   -0.6815 H   0  0  0  0  0  0  0  0  0  0  0  0
   -0.8713    1.5012    1.1361 H   0  0  0  0  0  0  0  0  0  0  0  0
   -0.3369   -0.3314   -0.0946 C   0  0  0  0  0  0  0  0  0  0  0  0
   -0.4373   -1.0338    0.8131 H   0  0  0  0  0  0  0  0  0  0  0  0
   -0.3042   -0.5980   -1.2137 H   0  0  0  0  0  0  0  0  0  0  0  0
    1.7372   -0.0346    0.0167 Br  0  0  0  0  0  0  0  0  0  0  0  0
   -2.5066    1.0806   -0.1793 C   0  0  0  0  0  0  0  0  0  0  0  0
   -2.6977    0.9871   -1.2205 H   0  0  0  0  0  0  0  0  0  0  0  0
   -3.2321    1.9739   -0.0176 H   0  0  0  0  0  0  0  0  0  0  0  0
   -3.1116   -0.2110    0.2858 C   0  0  0  0  0  0  0  0  0  0  0  0
   -4.2790   -0.2509    0.5012 H   0  0  0  0  0  0  0  0  0  0  0  0
   -2.9181   -0.1769    1.4954 H   0  0  0  0  0  0  0  0  0  0  0  0
   -2.4160   -1.2735   -0.2362 O   0  0  0  0  0  1  0  0  0  0  0  0
  1  3  1  0  0  0  0
  2  1  1  0  0  0  0
  4  7  1  0  0  0  0
  4  1  1  0  0  0  0
  4  5  1  0  0  0  0
  6  4  1  0  0  0  0
  8 10  1  0  0  0  0
  8  1  1  0  0  0  0
  8 11  1  0  0  0  0
  9  8  1  0  0  0  0
 11 12  1  0  0  0  0
 11 13  1  0  0  0  0
 14 11  1  0  0  0  0
M  END
$$$$
Title Card Required
 OpenBabel07152211483D

 14 13  0  0  0  0  0  0  0  0999 V2000
   -0.9950    1.0437    0.1252 C   0  0  0  0  0  0  0  0  0  0  0  0
   -0.5023    1.5545   -0.6120 H   0  0  0  0  0  0  0  0  0  0  0  0
   -0.8668    1.5636    1.0572 H   0  0  0  0  0  0  0  0  0  0  0  0
   -0.3329   -0.3343   -0.1057 C   0  0  0  0  0  0  0  0  0  0  0  0
   -0.4276   -1.0028    0.8036 H   0  0  0  0  0  0  0  0  0  0  0  0
   -0.2979   -0.6011   -1.1389 H   0  0  0  0  0  0  0  0  0  0  0  0
    1.7354   -0.0351    0.0166 Br  0  0  0  0  0  0  0  0  0  0  0  0
   -2.5023    1.0829   -0.1709 C   0  0  0  0  0  0  0  0  0  0  0  0
   -2.6352    0.9821   -1.2411 H   0  0  0  0  0  0  0  0  0  0  0  0
   -3.1752    1.9416    0.0046 H   0  0  0  0  0  0  0  0  0  0  0  0
   -3.1018   -0.2265    0.2879 C   0  0  0  0  0  0  0  0  0  0  0  0
   -4.2964   -0.1814    0.4022 H   0  0  0  0  0  0  0  0  0  0  0  0
   -2.8856   -0.1557    1.4506 H   0  0  0  0  0  0  0  0  0  0  0  0
   -2.4111   -1.2599   -0.2300 O   0  0  0  0  0  1  0  0  0  0  0  0
  1  3  1  0  0  0  0
  2  1  1  0  0  0  0
  4  7  1  0  0  0  0
  4  1  1  0  0  0  0
  4  5  1  0  0  0  0
  6  4  1  0  0  0  0
  8 10  1  0  0  0  0
  8  1  1  0  0  0  0
  8 11  1  0  0  0  0
  9  8  1  0  0  0  0
 11 12  1  0  0  0  0
 11 13  1  0  0  0  0
 14 11  1  0  0  0  0
M  END
$$$$
Title Card Required
 OpenBabel07152211483D

 14 13  0  0  0  0  0  0  0  0999 V2000
   -1.0183    1.0340    0.1258 C   0  0  0  0  0  0  0  0  0  0  0  0
   -0.5330    1.5682   -0.5793 H   0  0  0  0  0  0  0  0  0  0  0  0
   -0.8470    1.6194    0.9988 H   0  0  0  0  0  0  0  0  0  0  0  0
   -0.3306   -0.3365   -0.1113 C   0  0  0  0  0  0  0  0  0  0  0  0
   -0.4183   -0.9697    0.7587 H   0  0  0  0  0  0  0  0  0  0  0  0
   -0.3034   -0.6221   -1.0734 H   0  0  0  0  0  0  0  0  0  0  0  0
    1.7339   -0.0355    0.0165 Br  0  0  0  0  0  0  0  0  0  0  0  0
   -2.4995    1.0837   -0.1655 C   0  0  0  0  0  0  0  0  0  0  0  0
   -2.5694    0.9775   -1.2808 H   0  0  0  0  0  0  0  0  0  0  0  0
   -3.1053    1.9193    0.0443 H   0  0  0  0  0  0  0  0  0  0  0  0
   -3.0914   -0.2433    0.2951 C   0  0  0  0  0  0  0  0  0  0  0  0
   -4.2873   -0.1191    0.2848 H   0  0  0  0  0  0  0  0  0  0  0  0
   -2.8611   -0.1357    1.3990 H   0  0  0  0  0  0  0  0  0  0  0  0
   -2.4082   -1.2459   -0.2245 O   0  0  0  0  0  1  0  0  0  0  0  0
  1  3  1  0  0  0  0
  2  1  1  0  0  0  0
  4  7  1  0  0  0  0
  4  1  1  0  0  0  0
  4  5  1  0  0  0  0
  6  4  1  0  0  0  0
  8 10  1  0  0  0  0
  8  1  1  0  0  0  0
  8 11  1  0  0  0  0
  9  8  1  0  0  0  0
 11 13  1  0  0  0  0
 12 11  1  0  0  0  0
 14 11  1  0  0  0  0
M  END
$$$$
Title Card Required
 OpenBabel07152211483D

 14 13  0  0  0  0  0  0  0  0999 V2000
   -1.0432    1.0223    0.1269 C   0  0  0  0  0  0  0  0  0  0  0  0
   -0.5350    1.6297   -0.5958 H   0  0  0  0  0  0  0  0  0  0  0  0
   -0.8121    1.6693    0.9711 H   0  0  0  0  0  0  0  0  0  0  0  0
   -0.3298   -0.3350   -0.1092 C   0  0  0  0  0  0  0  0  0  0  0  0
   -0.4107   -0.9537    0.7040 H   0  0  0  0  0  0  0  0  0  0  0  0
   -0.3195   -0.6745   -1.0646 H   0  0  0  0  0  0  0  0  0  0  0  0
    1.7326   -0.0357    0.0165 Br  0  0  0  0  0  0  0  0  0  0  0  0
   -2.4966    1.0805   -0.1651 C   0  0  0  0  0  0  0  0  0  0  0  0
   -2.5048    0.9769   -1.3168 H   0  0  0  0  0  0  0  0  0  0  0  0
   -3.0409    1.9300    0.1048 H   0  0  0  0  0  0  0  0  0  0  0  0
   -3.0809   -0.2596    0.3050 C   0  0  0  0  0  0  0  0  0  0  0  0
   -4.2525   -0.0691    0.1562 H   0  0  0  0  0  0  0  0  0  0  0  0
   -2.8483   -0.1190    1.3602 H   0  0  0  0  0  0  0  0  0  0  0  0
   -2.4065   -1.2320   -0.2196 O   0  0  0  0  0  1  0  0  0  0  0  0
  1  3  1  0  0  0  0
  2  1  1  0  0  0  0
  4  7  1  0  0  0  0
  4  1  1  0  0  0  0
  4  5  1  0  0  0  0
  6  4  1  0  0  0  0
  8 10  1  0  0  0  0
  8  1  1  0  0  0  0
  8 11  1  0  0  0  0
  9  8  1  0  0  0  0
 11 13  1  0  0  0  0
 12 11  1  0  0  0  0
 14 11  1  0  0  0  0
M  END
$$$$
Title Card Required
 OpenBabel07152211483D

 14 13  0  0  0  0  0  0  0  0999 V2000
   -1.0653    1.0121    0.1266 C   0  0  0  0  0  0  0  0  0  0  0  0
   -0.5288    1.7079   -0.6335 H   0  0  0  0  0  0  0  0  0  0  0  0
   -0.7689    1.7011    0.9688 H   0  0  0  0  0  0  0  0  0  0  0  0
   -0.3301   -0.3281   -0.1031 C   0  0  0  0  0  0  0  0  0  0  0  0
   -0.4081   -0.9784    0.6759 H   0  0  0  0  0  0  0  0  0  0  0  0
   -0.3457   -0.7514   -1.1049 H   0  0  0  0  0  0  0  0  0  0  0  0
    1.7316   -0.0358    0.0165 Br  0  0  0  0  0  0  0  0  0  0  0  0
   -2.4932    1.0730   -0.1707 C   0  0  0  0  0  0  0  0  0  0  0  0
   -2.4519    0.9830   -1.3307 H   0  0  0  0  0  0  0  0  0  0  0  0
   -2.9898    1.9760    0.1809 H   0  0  0  0  0  0  0  0  0  0  0  0
   -3.0718   -0.2726    0.3147 C   0  0  0  0  0  0  0  0  0  0  0  0
   -4.1983   -0.0384    0.0319 H   0  0  0  0  0  0  0  0  0  0  0  0
   -2.8503   -0.1070    1.3578 H   0  0  0  0  0  0  0  0  0  0  0  0
   -2.4053   -1.2201   -0.2161 O   0  0  0  0  0  1  0  0  0  0  0  0
  1  3  1  0  0  0  0
  2  1  1  0  0  0  0
  4  7  1  0  0  0  0
  4  1  1  0  0  0  0
  4  5  1  0  0  0  0
  6  4  1  0  0  0  0
  8  1  1  0  0  0  0
  8 10  1  0  0  0  0
  8 11  1  0  0  0  0
  9  8  1  0  0  0  0
 11 13  1  0  0  0  0
 12 11  1  0  0  0  0
 14 11  1  0  0  0  0
M  END
$$$$
Title Card Required
 OpenBabel07152211483D

 14 13  0  0  0  0  0  0  0  0999 V2000
   -1.0813    1.0066    0.1238 C   0  0  0  0  0  0  0  0  0  0  0  0
   -0.5342    1.7757   -0.6654 H   0  0  0  0  0  0  0  0  0  0  0  0
   -0.7238    1.7004    0.9792 H   0  0  0  0  0  0  0  0  0  0  0  0
   -0.3312   -0.3167   -0.0980 C   0  0  0  0  0  0  0  0  0  0  0  0
   -0.4114   -1.0492    0.6831 H   0  0  0  0  0  0  0  0  0  0  0  0
   -0.3828   -0.8329   -1.1453 H   0  0  0  0  0  0  0  0  0  0  0  0
    1.7306   -0.0358    0.0165 Br  0  0  0  0  0  0  0  0  0  0  0  0
   -2.4904    1.0630   -0.1822 C   0  0  0  0  0  0  0  0  0  0  0  0
   -2.4173    0.9981   -1.3161 H   0  0  0  0  0  0  0  0  0  0  0  0
   -2.9383    2.0346    0.2636 H   0  0  0  0  0  0  0  0  0  0  0  0
   -3.0645   -0.2811    0.3234 C   0  0  0  0  0  0  0  0  0  0  0  0
   -4.1295   -0.0306   -0.0843 H   0  0  0  0  0  0  0  0  0  0  0  0
   -2.8727   -0.0998    1.4021 H   0  0  0  0  0  0  0  0  0  0  0  0
   -2.4037   -1.2109   -0.2139 O   0  0  0  0  0  1  0  0  0  0  0  0
  1  3  1  0  0  0  0
  2  1  1  0  0  0  0
  4  7  1  0  0  0  0
  4  1  1  0  0  0  0
  4  5  1  0  0  0  0
  6  4  1  0  0  0  0
  8  1  1  0  0  0  0
  8 10  1  0  0  0  0
  8 11  1  0  0  0  0
  9  8  1  0  0  0  0
 11 13  1  0  0  0  0
 12 11  1  0  0  0  0
 14 11  1  0  0  0  0
M  END
$$$$
Title Card Required
 OpenBabel07152211483D

 14 13  0  0  0  0  0  0  0  0999 V2000
   -1.0852    1.0103    0.1169 C   0  0  0  0  0  0  0  0  0  0  0  0
   -0.5688    1.8051   -0.6685 H   0  0  0  0  0  0  0  0  0  0  0  0
   -0.6869    1.6428    0.9937 H   0  0  0  0  0  0  0  0  0  0  0  0
   -0.3336   -0.3054   -0.0955 C   0  0  0  0  0  0  0  0  0  0  0  0
   -0.4196   -1.1400    0.6987 H   0  0  0  0  0  0  0  0  0  0  0  0
   -0.4316   -0.8910   -1.1344 H   0  0  0  0  0  0  0  0  0  0  0  0
    1.7297   -0.0356    0.0165 Br  0  0  0  0  0  0  0  0  0  0  0  0
   -2.4895    1.0534   -0.1979 C   0  0  0  0  0  0  0  0  0  0  0  0
   -2.4152    1.0257   -1.2779 H   0  0  0  0  0  0  0  0  0  0  0  0
   -2.8708    2.0716    0.3341 H   0  0  0  0  0  0  0  0  0  0  0  0
   -3.0597   -0.2822    0.3315 C   0  0  0  0  0  0  0  0  0  0  0  0
   -4.0560   -0.0556   -0.1834 H   0  0  0  0  0  0  0  0  0  0  0  0
   -2.9327   -0.1025    1.4875 H   0  0  0  0  0  0  0  0  0  0  0  0
   -2.4003   -1.2062   -0.2135 O   0  0  0  0  0  1  0  0  0  0  0  0
  1  3  1  0  0  0  0
  2  1  1  0  0  0  0
  4  7  1  0  0  0  0
  4  1  1  0  0  0  0
  4  5  1  0  0  0  0
  6  4  1  0  0  0  0
  8  1  1  0  0  0  0
  8 11  1  0  0  0  0
  8 10  1  0  0  0  0
  9  8  1  0  0  0  0
 11 13  1  0  0  0  0
 12 11  1  0  0  0  0
 14 11  1  0  0  0  0
M  END
$$$$
Title Card Required
 OpenBabel07152211483D

 14 13  0  0  0  0  0  0  0  0999 V2000
   -1.0717    1.0243    0.1065 C   0  0  0  0  0  0  0  0  0  0  0  0
   -0.6286    1.7720   -0.6295 H   0  0  0  0  0  0  0  0  0  0  0  0
   -0.6772    1.5338    1.0083 H   0  0  0  0  0  0  0  0  0  0  0  0
   -0.3375   -0.3029   -0.0951 C   0  0  0  0  0  0  0  0  0  0  0  0
   -0.4278   -1.1790    0.6817 H   0  0  0  0  0  0  0  0  0  0  0  0
   -0.4753   -0.8878   -1.0496 H   0  0  0  0  0  0  0  0  0  0  0  0
    1.7289   -0.0353    0.0166 Br  0  0  0  0  0  0  0  0  0  0  0  0
   -2.4909    1.0491   -0.2082 C   0  0  0  0  0  0  0  0  0  0  0  0
   -2.4575    1.0601   -1.2628 H   0  0  0  0  0  0  0  0  0  0  0  0
   -2.8006    2.0487    0.3527 H   0  0  0  0  0  0  0  0  0  0  0  0
   -3.0588   -0.2734    0.3384 C   0  0  0  0  0  0  0  0  0  0  0  0
   -4.0191   -0.1129   -0.2301 H   0  0  0  0  0  0  0  0  0  0  0  0
   -3.0278   -0.1208    1.5553 H   0  0  0  0  0  0  0  0  0  0  0  0
   -2.3948   -1.2085   -0.2149 O   0  0  0  0  0  1  0  0  0  0  0  0
  1  3  1  0  0  0  0
  2  1  1  0  0  0  0
  4  7  1  0  0  0  0
  4  1  1  0  0  0  0
  4  5  1  0  0  0  0
  6  4  1  0  0  0  0
  8  1  1  0  0  0  0
  8 11  1  0  0  0  0
  8 10  1  0  0  0  0
  9  8  1  0  0  0  0
 11 13  1  0  0  0  0
 12 11  1  0  0  0  0
 14 11  1  0  0  0  0
M  END
$$$$
Title Card Required
 OpenBabel07152211483D

 14 13  0  0  0  0  0  0  0  0999 V2000
   -1.0503    1.0391    0.0959 C   0  0  0  0  0  0  0  0  0  0  0  0
   -0.6743    1.7232   -0.5885 H   0  0  0  0  0  0  0  0  0  0  0  0
   -0.6868    1.4260    1.0334 H   0  0  0  0  0  0  0  0  0  0  0  0
   -0.3418   -0.3078   -0.0936 C   0  0  0  0  0  0  0  0  0  0  0  0
   -0.4331   -1.1554    0.6400 H   0  0  0  0  0  0  0  0  0  0  0  0
   -0.5041   -0.8522   -0.9606 H   0  0  0  0  0  0  0  0  0  0  0  0
    1.7283   -0.0348    0.0166 Br  0  0  0  0  0  0  0  0  0  0  0  0
   -2.4926    1.0499   -0.2089 C   0  0  0  0  0  0  0  0  0  0  0  0
   -2.5226    1.0920   -1.2886 H   0  0  0  0  0  0  0  0  0  0  0  0
   -2.7516    1.9906    0.3288 H   0  0  0  0  0  0  0  0  0  0  0  0
   -3.0609   -0.2603    0.3432 C   0  0  0  0  0  0  0  0  0  0  0  0
   -4.0285   -0.1775   -0.2277 H   0  0  0  0  0  0  0  0  0  0  0  0
   -3.1249   -0.1468    1.5707 H   0  0  0  0  0  0  0  0  0  0  0  0
   -2.3888   -1.2150   -0.2164 O   0  0  0  0  0  1  0  0  0  0  0  0
  1  3  1  0  0  0  0
  2  1  1  0  0  0  0
  4  7  1  0  0  0  0
  4  1  1  0  0  0  0
  4  5  1  0  0  0  0
  6  4  1  0  0  0  0
  8  1  1  0  0  0  0
  8 10  1  0  0  0  0
  8 11  1  0  0  0  0
  9  8  1  0  0  0  0
 11 13  1  0  0  0  0
 12 11  1  0  0  0  0
 14 11  1  0  0  0  0
M  END
$$$$
Title Card Required
 OpenBabel07152211483D

 14 13  0  0  0  0  0  0  0  0999 V2000
   -1.0256    1.0498    0.0864 C   0  0  0  0  0  0  0  0  0  0  0  0
   -0.6830    1.7067   -0.5842 H   0  0  0  0  0  0  0  0  0  0  0  0
   -0.7055    1.3273    1.0803 H   0  0  0  0  0  0  0  0  0  0  0  0
   -0.3461   -0.3138   -0.0881 C   0  0  0  0  0  0  0  0  0  0  0  0
   -0.4380   -1.1012    0.5992 H   0  0  0  0  0  0  0  0  0  0  0  0
   -0.5302   -0.8252   -0.9252 H   0  0  0  0  0  0  0  0  0  0  0  0
    1.7279   -0.0343    0.0166 Br  0  0  0  0  0  0  0  0  0  0  0  0
   -2.4935    1.0519   -0.2051 C   0  0  0  0  0  0  0  0  0  0  0  0
   -2.6027    1.1228   -1.3251 H   0  0  0  0  0  0  0  0  0  0  0  0
   -2.7277    1.9355    0.2921 H   0  0  0  0  0  0  0  0  0  0  0  0
   -3.0655   -0.2452    0.3461 C   0  0  0  0  0  0  0  0  0  0  0  0
   -4.0676   -0.2455   -0.1925 H   0  0  0  0  0  0  0  0  0  0  0  0
   -3.2224   -0.1778    1.5442 H   0  0  0  0  0  0  0  0  0  0  0  0
   -2.3823   -1.2239   -0.2173 O   0  0  0  0  0  1  0  0  0  0  0  0
  1  3  1  0  0  0  0
  2  1  1  0  0  0  0
  4  7  1  0  0  0  0
  4  1  1  0  0  0  0
  4  5  1  0  0  0  0
  6  4  1  0  0  0  0
  8  1  1  0  0  0  0
  8 10  1  0  0  0  0
  8 11  1  0  0  0  0
  9  8  1  0  0  0  0
 11 13  1  0  0  0  0
 12 11  1  0  0  0  0
 14 11  1  0  0  0  0
M  END
$$$$
Title Card Required
 OpenBabel07152211483D

 14 13  0  0  0  0  0  0  0  0999 V2000
   -1.0004    1.0539    0.0800 C   0  0  0  0  0  0  0  0  0  0  0  0
   -0.6442    1.7432   -0.6291 H   0  0  0  0  0  0  0  0  0  0  0  0
   -0.7321    1.2448    1.1404 H   0  0  0  0  0  0  0  0  0  0  0  0
   -0.3497   -0.3164   -0.0802 C   0  0  0  0  0  0  0  0  0  0  0  0
   -0.4463   -1.0561    0.5959 H   0  0  0  0  0  0  0  0  0  0  0  0
   -0.5577   -0.8239   -0.9696 H   0  0  0  0  0  0  0  0  0  0  0  0
    1.7277   -0.0338    0.0166 Br  0  0  0  0  0  0  0  0  0  0  0  0
   -2.4926    1.0521   -0.2013 C   0  0  0  0  0  0  0  0  0  0  0  0
   -2.6872    1.1498   -1.3433 H   0  0  0  0  0  0  0  0  0  0  0  0
   -2.7391    1.9249    0.2694 H   0  0  0  0  0  0  0  0  0  0  0  0
   -3.0729   -0.2304    0.3465 C   0  0  0  0  0  0  0  0  0  0  0  0
   -4.1221   -0.3093   -0.1312 H   0  0  0  0  0  0  0  0  0  0  0  0
   -3.3118   -0.2098    1.4862 H   0  0  0  0  0  0  0  0  0  0  0  0
   -2.3756   -1.2341   -0.2170 O   0  0  0  0  0  1  0  0  0  0  0  0
  1  3  1  0  0  0  0
  2  1  1  0  0  0  0
  4  7  1  0  0  0  0
  4  1  1  0  0  0  0
  4  5  1  0  0  0  0
  6  4  1  0  0  0  0
  8  1  1  0  0  0  0
  8 10  1  0  0  0  0
  8 11  1  0  0  0  0
  9  8  1  0  0  0  0
 11 13  1  0  0  0  0
 12 11  1  0  0  0  0
 14 11  1  0  0  0  0
M  END
$$$$
Title Card Required
 OpenBabel07152211483D

 14 13  0  0  0  0  0  0  0  0999 V2000
   -0.9765    1.0539    0.0757 C   0  0  0  0  0  0  0  0  0  0  0  0
   -0.5796    1.8006   -0.6837 H   0  0  0  0  0  0  0  0  0  0  0  0
   -0.7647    1.1857    1.1907 H   0  0  0  0  0  0  0  0  0  0  0  0
   -0.3527   -0.3153   -0.0755 C   0  0  0  0  0  0  0  0  0  0  0  0
   -0.4596   -1.0460    0.6454 H   0  0  0  0  0  0  0  0  0  0  0  0
   -0.5775   -0.8295   -1.0478 H   0  0  0  0  0  0  0  0  0  0  0  0
    1.7275   -0.0332    0.0165 Br  0  0  0  0  0  0  0  0  0  0  0  0
   -2.4903    1.0501   -0.1997 C   0  0  0  0  0  0  0  0  0  0  0  0
   -2.7610    1.1689   -1.3304 H   0  0  0  0  0  0  0  0  0  0  0  0
   -2.7817    1.9648    0.2692 H   0  0  0  0  0  0  0  0  0  0  0  0
   -3.0830   -0.2188    0.3436 C   0  0  0  0  0  0  0  0  0  0  0  0
   -4.1740   -0.3584   -0.0582 H   0  0  0  0  0  0  0  0  0  0  0  0
   -3.3815   -0.2376    1.4201 H   0  0  0  0  0  0  0  0  0  0  0  0
   -2.3695   -1.2440   -0.2153 O   0  0  0  0  0  1  0  0  0  0  0  0
  1  3  1  0  0  0  0
  2  1  1  0  0  0  0
  4  7  1  0  0  0  0
  4  1  1  0  0  0  0
  4  5  1  0  0  0  0
  6  4  1  0  0  0  0
  8  1  1  0  0  0  0
  8 10  1  0  0  0  0
  8 11  1  0  0  0  0
  9  8  1  0  0  0  0
 11 13  1  0  0  0  0
 12 11  1  0  0  0  0
 14 11  1  0  0  0  0
M  END
$$$$
Title Card Required
 OpenBabel07152211483D

 14 13  0  0  0  0  0  0  0  0999 V2000
   -0.9516    1.0528    0.0718 C   0  0  0  0  0  0  0  0  0  0  0  0
   -0.5036    1.8510   -0.7165 H   0  0  0  0  0  0  0  0  0  0  0  0
   -0.8047    1.1465    1.2199 H   0  0  0  0  0  0  0  0  0  0  0  0
   -0.3560   -0.3139   -0.0762 C   0  0  0  0  0  0  0  0  0  0  0  0
   -0.4773   -1.0544    0.7304 H   0  0  0  0  0  0  0  0  0  0  0  0
   -0.5827   -0.8231   -1.1183 H   0  0  0  0  0  0  0  0  0  0  0  0
    1.7275   -0.0325    0.0165 Br  0  0  0  0  0  0  0  0  0  0  0  0
   -2.4877    1.0486   -0.1994 C   0  0  0  0  0  0  0  0  0  0  0  0
   -2.8242    1.1806   -1.2863 H   0  0  0  0  0  0  0  0  0  0  0  0
   -2.8447    2.0271    0.2785 H   0  0  0  0  0  0  0  0  0  0  0  0
   -3.0966   -0.2107    0.3364 C   0  0  0  0  0  0  0  0  0  0  0  0
   -4.2195   -0.3924    0.0215 H   0  0  0  0  0  0  0  0  0  0  0  0
   -3.4348   -0.2615    1.3641 H   0  0  0  0  0  0  0  0  0  0  0  0
   -2.3640   -1.2539   -0.2118 O   0  0  0  0  0  1  0  0  0  0  0  0
  1  3  1  0  0  0  0
  2  1  1  0  0  0  0
  4  7  1  0  0  0  0
  4  1  1  0  0  0  0
  4  5  1  0  0  0  0
  6  4  1  0  0  0  0
  8  1  1  0  0  0  0
  8 10  1  0  0  0  0
  8 11  1  0  0  0  0
  9  8  1  0  0  0  0
 11 13  1  0  0  0  0
 12 11  1  0  0  0  0
 14 11  1  0  0  0  0
M  END
$$$$
Title Card Required
 OpenBabel07152211483D

 14 13  0  0  0  0  0  0  0  0999 V2000
   -0.9228    1.0528    0.0670 C   0  0  0  0  0  0  0  0  0  0  0  0
   -0.4205    1.8727   -0.6972 H   0  0  0  0  0  0  0  0  0  0  0  0
   -0.8542    1.1331    1.2113 H   0  0  0  0  0  0  0  0  0  0  0  0
   -0.3608   -0.3170   -0.0835 C   0  0  0  0  0  0  0  0  0  0  0  0
   -0.4966   -1.0491    0.8220 H   0  0  0  0  0  0  0  0  0  0  0  0
   -0.5625   -0.7894   -1.1483 H   0  0  0  0  0  0  0  0  0  0  0  0
    1.7277   -0.0317    0.0164 Br  0  0  0  0  0  0  0  0  0  0  0  0
   -2.4859    1.0516   -0.1985 C   0  0  0  0  0  0  0  0  0  0  0  0
   -2.8753    1.1839   -1.2108 H   0  0  0  0  0  0  0  0  0  0  0  0
   -2.9205    2.0809    0.2837 H   0  0  0  0  0  0  0  0  0  0  0  0
   -3.1164   -0.2082    0.3217 C   0  0  0  0  0  0  0  0  0  0  0  0
   -4.2568   -0.4051    0.1014 H   0  0  0  0  0  0  0  0  0  0  0  0
   -3.4675   -0.2805    1.3453 H   0  0  0  0  0  0  0  0  0  0  0  0
   -2.3592   -1.2644   -0.2054 O   0  0  0  0  0  1  0  0  0  0  0  0
  1  3  1  0  0  0  0
  2  1  1  0  0  0  0
  4  7  1  0  0  0  0
  4  1  1  0  0  0  0
  4  5  1  0  0  0  0
  6  4  1  0  0  0  0
  8  1  1  0  0  0  0
  8 10  1  0  0  0  0
  8 11  1  0  0  0  0
  9  8  1  0  0  0  0
 11 13  1  0  0  0  0
 12 11  1  0  0  0  0
 14 11  1  0  0  0  0
M  END
$$$$
Title Card Required
 OpenBabel07152211483D

 14 13  0  0  0  0  0  0  0  0999 V2000
   -0.8966    1.0556    0.0615 C   0  0  0  0  0  0  0  0  0  0  0  0
   -0.3600    1.8396   -0.6045 H   0  0  0  0  0  0  0  0  0  0  0  0
   -0.8960    1.1592    1.1596 H   0  0  0  0  0  0  0  0  0  0  0  0
   -0.3667   -0.3280   -0.0949 C   0  0  0  0  0  0  0  0  0  0  0  0
   -0.5074   -1.0009    0.8558 H   0  0  0  0  0  0  0  0  0  0  0  0
   -0.5145   -0.7325   -1.1079 H   0  0  0  0  0  0  0  0  0  0  0  0
    1.7281   -0.0308    0.0163 Br  0  0  0  0  0  0  0  0  0  0  0  0
   -2.4864    1.0623   -0.1935 C   0  0  0  0  0  0  0  0  0  0  0  0
   -2.9033    1.1799   -1.1538 H   0  0  0  0  0  0  0  0  0  0  0  0
   -2.9760    2.0806    0.2739 H   0  0  0  0  0  0  0  0  0  0  0  0
   -3.1394   -0.2149    0.3017 C   0  0  0  0  0  0  0  0  0  0  0  0
   -4.2752   -0.3851    0.1439 H   0  0  0  0  0  0  0  0  0  0  0  0
   -3.4558   -0.2864    1.3868 H   0  0  0  0  0  0  0  0  0  0  0  0
   -2.3570   -1.2726   -0.1964 O   0  0  0  0  0  1  0  0  0  0  0  0
  1  3  1  0  0  0  0
  2  1  1  0  0  0  0
  4  7  1  0  0  0  0
  4  1  1  0  0  0  0
  4  5  1  0  0  0  0
  6  4  1  0  0  0  0
  8  1  1  0  0  0  0
  8 10  1  0  0  0  0
  8 11  1  0  0  0  0
  9  8  1  0  0  0  0
 11 13  1  0  0  0  0
 12 11  1  0  0  0  0
 14 11  1  0  0  0  0
M  END
$$$$
Title Card Required
 OpenBabel07152211483D

 14 13  0  0  0  0  0  0  0  0999 V2000
   -0.8793    1.0592    0.0560 C   0  0  0  0  0  0  0  0  0  0  0  0
   -0.3262    1.7836   -0.4890 H   0  0  0  0  0  0  0  0  0  0  0  0
   -0.9160    1.2107    1.1092 H   0  0  0  0  0  0  0  0  0  0  0  0
   -0.3722   -0.3413   -0.1030 C   0  0  0  0  0  0  0  0  0  0  0  0
   -0.5067   -0.9310    0.8247 H   0  0  0  0  0  0  0  0  0  0  0  0
   -0.4616   -0.6912   -1.0560 H   0  0  0  0  0  0  0  0  0  0  0  0
    1.7288   -0.0300    0.0162 Br  0  0  0  0  0  0  0  0  0  0  0  0
   -2.4888    1.0768   -0.1842 C   0  0  0  0  0  0  0  0  0  0  0  0
   -2.9138    1.1753   -1.1565 H   0  0  0  0  0  0  0  0  0  0  0  0
   -2.9948    2.0316    0.2555 H   0  0  0  0  0  0  0  0  0  0  0  0
   -3.1594   -0.2276    0.2845 C   0  0  0  0  0  0  0  0  0  0  0  0
   -4.2777   -0.3452    0.1396 H   0  0  0  0  0  0  0  0  0  0  0  0
   -3.4032   -0.2785    1.4442 H   0  0  0  0  0  0  0  0  0  0  0  0
   -2.3580   -1.2770   -0.1872 O   0  0  0  0  0  1  0  0  0  0  0  0
  1  3  1  0  0  0  0
  2  1  1  0  0  0  0
  4  7  1  0  0  0  0
  4  1  1  0  0  0  0
  4  5  1  0  0  0  0
  6  4  1  0  0  0  0
  8  1  1  0  0  0  0
  8 10  1  0  0  0  0
  8 11  1  0  0  0  0
  9  8  1  0  0  0  0
 11 13  1  0  0  0  0
 12 11  1  0  0  0  0
 14 11  1  0  0  0  0
M  END
$$$$
Title Card Required
 OpenBabel07152211483D

 14 13  0  0  0  0  0  0  0  0999 V2000
   -0.8704    1.0602    0.0510 C   0  0  0  0  0  0  0  0  0  0  0  0
   -0.2823    1.7498   -0.3889 H   0  0  0  0  0  0  0  0  0  0  0  0
   -0.9188    1.2795    1.0847 H   0  0  0  0  0  0  0  0  0  0  0  0
   -0.3775   -0.3527   -0.1056 C   0  0  0  0  0  0  0  0  0  0  0  0
   -0.5006   -0.8667    0.7691 H   0  0  0  0  0  0  0  0  0  0  0  0
   -0.4091   -0.6864   -1.0536 H   0  0  0  0  0  0  0  0  0  0  0  0
    1.7298   -0.0292    0.0161 Br  0  0  0  0  0  0  0  0  0  0  0  0
   -2.4926    1.0936   -0.1727 C   0  0  0  0  0  0  0  0  0  0  0  0
   -2.9088    1.1703   -1.1992 H   0  0  0  0  0  0  0  0  0  0  0  0
   -2.9912    1.9599    0.2395 H   0  0  0  0  0  0  0  0  0  0  0  0
   -3.1767   -0.2449    0.2705 C   0  0  0  0  0  0  0  0  0  0  0  0
   -4.2750   -0.2933    0.1023 H   0  0  0  0  0  0  0  0  0  0  0  0
   -3.3211   -0.2604    1.4899 H   0  0  0  0  0  0  0  0  0  0  0  0
   -2.3617   -1.2789   -0.1773 O   0  0  0  0  0  1  0  0  0  0  0  0
  1  3  1  0  0  0  0
  2  1  1  0  0  0  0
  4  7  1  0  0  0  0
  4  1  1  0  0  0  0
  4  5  1  0  0  0  0
  6  4  1  0  0  0  0
  8  1  1  0  0  0  0
  8 10  1  0  0  0  0
  8 11  1  0  0  0  0
  9  8  1  0  0  0  0
 11 13  1  0  0  0  0
 12 11  1  0  0  0  0
 14 11  1  0  0  0  0
M  END
$$$$
Title Card Required
 OpenBabel07152211483D

 14 13  0  0  0  0  0  0  0  0999 V2000
   -0.8716    1.0563    0.0480 C   0  0  0  0  0  0  0  0  0  0  0  0
   -0.2023    1.7696   -0.3306 H   0  0  0  0  0  0  0  0  0  0  0  0
   -0.9055    1.3578    1.0944 H   0  0  0  0  0  0  0  0  0  0  0  0
   -0.3826   -0.3582   -0.1065 C   0  0  0  0  0  0  0  0  0  0  0  0
   -0.4960   -0.8486    0.7473 H   0  0  0  0  0  0  0  0  0  0  0  0
   -0.3574   -0.7232   -1.1127 H   0  0  0  0  0  0  0  0  0  0  0  0
    1.7311   -0.0283    0.0160 Br  0  0  0  0  0  0  0  0  0  0  0  0
   -2.4971    1.1094   -0.1633 C   0  0  0  0  0  0  0  0  0  0  0  0
   -2.8789    1.1640   -1.2540 H   0  0  0  0  0  0  0  0  0  0  0  0
   -2.9862    1.9061    0.2455 H   0  0  0  0  0  0  0  0  0  0  0  0
   -3.1895   -0.2658    0.2605 C   0  0  0  0  0  0  0  0  0  0  0  0
   -4.2752   -0.2346    0.0380 H   0  0  0  0  0  0  0  0  0  0  0  0
   -3.2199   -0.2342    1.5067 H   0  0  0  0  0  0  0  0  0  0  0  0
   -2.3685   -1.2787   -0.1666 O   0  0  0  0  0  1  0  0  0  0  0  0
  1  3  1  0  0  0  0
  2  1  1  0  0  0  0
  4  7  1  0  0  0  0
  4  1  1  0  0  0  0
  4  5  1  0  0  0  0
  6  4  1  0  0  0  0
  8  1  1  0  0  0  0
  8 10  1  0  0  0  0
  8 11  1  0  0  0  0
  9  8  1  0  0  0  0
 11 13  1  0  0  0  0
 12 11  1  0  0  0  0
 14 11  1  0  0  0  0
M  END
$$$$
Title Card Required
 OpenBabel07152211483D

 14 13  0  0  0  0  0  0  0  0999 V2000
   -0.8812    1.0509    0.0477 C   0  0  0  0  0  0  0  0  0  0  0  0
   -0.1144    1.8177   -0.3105 H   0  0  0  0  0  0  0  0  0  0  0  0
   -0.8785    1.4250    1.1211 H   0  0  0  0  0  0  0  0  0  0  0  0
   -0.3868   -0.3578   -0.1119 C   0  0  0  0  0  0  0  0  0  0  0  0
   -0.4964   -0.8962    0.7875 H   0  0  0  0  0  0  0  0  0  0  0  0
   -0.3132   -0.7775   -1.1754 H   0  0  0  0  0  0  0  0  0  0  0  0
    1.7327   -0.0275    0.0159 Br  0  0  0  0  0  0  0  0  0  0  0  0
   -2.5003    1.1193   -0.1608 C   0  0  0  0  0  0  0  0  0  0  0  0
   -2.8226    1.1590   -1.2905 H   0  0  0  0  0  0  0  0  0  0  0  0
   -3.0018    1.9123    0.2897 H   0  0  0  0  0  0  0  0  0  0  0  0
   -3.1952   -0.2868    0.2558 C   0  0  0  0  0  0  0  0  0  0  0  0
   -4.2792   -0.1799   -0.0393 H   0  0  0  0  0  0  0  0  0  0  0  0
   -3.1233   -0.2053    1.4847 H   0  0  0  0  0  0  0  0  0  0  0  0
   -2.3780   -1.2769   -0.1562 O   0  0  0  0  0  1  0  0  0  0  0  0
  1  3  1  0  0  0  0
  2  1  1  0  0  0  0
  4  7  1  0  0  0  0
  4  1  1  0  0  0  0
  4  5  1  0  0  0  0
  6  4  1  0  0  0  0
  8  1  1  0  0  0  0
  8 11  1  0  0  0  0
  8 10  1  0  0  0  0
  9  8  1  0  0  0  0
 11 13  1  0  0  0  0
 12 11  1  0  0  0  0
 14 11  1  0  0  0  0
M  END
$$$$
Title Card Required
 OpenBabel07152211483D

 14 13  0  0  0  0  0  0  0  0999 V2000
   -0.8958    1.0487    0.0508 C   0  0  0  0  0  0  0  0  0  0  0  0
   -0.0584    1.8532   -0.3115 H   0  0  0  0  0  0  0  0  0  0  0  0
   -0.8398    1.4678    1.1405 H   0  0  0  0  0  0  0  0  0  0  0  0
   -0.3903   -0.3562   -0.1214 C   0  0  0  0  0  0  0  0  0  0  0  0
   -0.4956   -0.9788    0.8388 H   0  0  0  0  0  0  0  0  0  0  0  0
   -0.2812   -0.8283   -1.1969 H   0  0  0  0  0  0  0  0  0  0  0  0
    1.7348   -0.0267    0.0159 Br  0  0  0  0  0  0  0  0  0  0  0  0
   -2.5024    1.1246   -0.1654 C   0  0  0  0  0  0  0  0  0  0  0  0
   -2.7425    1.1589   -1.2956 H   0  0  0  0  0  0  0  0  0  0  0  0
   -3.0308    1.9644    0.3613 H   0  0  0  0  0  0  0  0  0  0  0  0
   -3.1939   -0.3065    0.2555 C   0  0  0  0  0  0  0  0  0  0  0  0
   -4.2779   -0.1340   -0.1197 H   0  0  0  0  0  0  0  0  0  0  0  0
   -3.0447   -0.1765    1.4252 H   0  0  0  0  0  0  0  0  0  0  0  0
   -2.3904   -1.2744   -0.1462 O   0  0  0  0  0  1  0  0  0  0  0  0
  1  3  1  0  0  0  0
  2  1  1  0  0  0  0
  4  7  1  0  0  0  0
  4  1  1  0  0  0  0
  4  5  1  0  0  0  0
  6  4  1  0  0  0  0
  8  1  1  0  0  0  0
  8 11  1  0  0  0  0
  8 10  1  0  0  0  0
  9  8  1  0  0  0  0
 11 13  1  0  0  0  0
 12 11  1  0  0  0  0
 14 11  1  0  0  0  0
M  END
$$$$
Title Card Required
 OpenBabel07152211483D

 14 13  0  0  0  0  0  0  0  0999 V2000
   -0.9147    1.0535    0.0591 C   0  0  0  0  0  0  0  0  0  0  0  0
   -0.0691    1.8477   -0.3297 H   0  0  0  0  0  0  0  0  0  0  0  0
   -0.7888    1.4707    1.1323 H   0  0  0  0  0  0  0  0  0  0  0  0
   -0.3931   -0.3581   -0.1322 C   0  0  0  0  0  0  0  0  0  0  0  0
   -0.4871   -1.0620    0.8394 H   0  0  0  0  0  0  0  0  0  0  0  0
   -0.2683   -0.8628   -1.1479 H   0  0  0  0  0  0  0  0  0  0  0  0
    1.7376   -0.0257    0.0160 Br  0  0  0  0  0  0  0  0  0  0  0  0
   -2.5044    1.1290   -0.1761 C   0  0  0  0  0  0  0  0  0  0  0  0
   -2.6396    1.1699   -1.2674 H   0  0  0  0  0  0  0  0  0  0  0  0
   -3.0458    2.0209    0.4318 H   0  0  0  0  0  0  0  0  0  0  0  0
   -3.1850   -0.3233    0.2589 C   0  0  0  0  0  0  0  0  0  0  0  0
   -4.2564   -0.1032   -0.1943 H   0  0  0  0  0  0  0  0  0  0  0  0
   -2.9992   -0.1488    1.3368 H   0  0  0  0  0  0  0  0  0  0  0  0
   -2.4067   -1.2725   -0.1367 O   0  0  0  0  0  1  0  0  0  0  0  0
  1  3  1  0  0  0  0
  2  1  1  0  0  0  0
  4  7  1  0  0  0  0
  4  1  1  0  0  0  0
  4  5  1  0  0  0  0
  6  4  1  0  0  0  0
  8  1  1  0  0  0  0
  8 11  1  0  0  0  0
  8 10  1  0  0  0  0
  9  8  1  0  0  0  0
 11 13  1  0  0  0  0
 12 11  1  0  0  0  0
 14 11  1  0  0  0  0
M  END
$$$$
Title Card Required
 OpenBabel07152211483D

 14 13  0  0  0  0  0  0  0  0999 V2000
   -0.9330    1.0642    0.0711 C   0  0  0  0  0  0  0  0  0  0  0  0
   -0.1584    1.7933   -0.3619 H   0  0  0  0  0  0  0  0  0  0  0  0
   -0.7413    1.4279    1.1002 H   0  0  0  0  0  0  0  0  0  0  0  0
   -0.3947   -0.3653   -0.1379 C   0  0  0  0  0  0  0  0  0  0  0  0
   -0.4710   -1.0972    0.7575 H   0  0  0  0  0  0  0  0  0  0  0  0
   -0.2806   -0.8742   -1.0554 H   0  0  0  0  0  0  0  0  0  0  0  0
    1.7407   -0.0247    0.0161 Br  0  0  0  0  0  0  0  0  0  0  0  0
   -2.5057    1.1347   -0.1858 C   0  0  0  0  0  0  0  0  0  0  0  0
   -2.5506    1.1957   -1.2438 H   0  0  0  0  0  0  0  0  0  0  0  0
   -3.0236    2.0324    0.4551 H   0  0  0  0  0  0  0  0  0  0  0  0
   -3.1719   -0.3306    0.2613 C   0  0  0  0  0  0  0  0  0  0  0  0
   -4.2125   -0.1012   -0.2340 H   0  0  0  0  0  0  0  0  0  0  0  0
   -3.0069   -0.1251    1.2853 H   0  0  0  0  0  0  0  0  0  0  0  0
   -2.4228   -1.2738   -0.1306 O   0  0  0  0  0  1  0  0  0  0  0  0
  1  3  1  0  0  0  0
  2  1  1  0  0  0  0
  4  7  1  0  0  0  0
  4  1  1  0  0  0  0
  4  5  1  0  0  0  0
  6  4  1  0  0  0  0
  8  1  1  0  0  0  0
  8 11  1  0  0  0  0
  8 10  1  0  0  0  0
  9  8  1  0  0  0  0
 11 13  1  0  0  0  0
 12 11  1  0  0  0  0
 14 11  1  0  0  0  0
M  END
$$$$
Title Card Required
 OpenBabel07152211483D

 14 13  0  0  0  0  0  0  0  0999 V2000
   -0.9493    1.0744    0.0829 C   0  0  0  0  0  0  0  0  0  0  0  0
   -0.2746    1.7291   -0.4084 H   0  0  0  0  0  0  0  0  0  0  0  0
   -0.7037    1.3674    1.0801 H   0  0  0  0  0  0  0  0  0  0  0  0
   -0.3956   -0.3727   -0.1357 C   0  0  0  0  0  0  0  0  0  0  0  0
   -0.4542   -1.0931    0.6434 H   0  0  0  0  0  0  0  0  0  0  0  0
   -0.3045   -0.8888   -1.0012 H   0  0  0  0  0  0  0  0  0  0  0  0
    1.7436   -0.0238    0.0163 Br  0  0  0  0  0  0  0  0  0  0  0  0
   -2.5053    1.1414   -0.1903 C   0  0  0  0  0  0  0  0  0  0  0  0
   -2.4930    1.2319   -1.2566 H   0  0  0  0  0  0  0  0  0  0  0  0
   -2.9765    2.0013    0.4318 H   0  0  0  0  0  0  0  0  0  0  0  0
   -3.1592   -0.3285    0.2599 C   0  0  0  0  0  0  0  0  0  0  0  0
   -4.1651   -0.1208   -0.2403 H   0  0  0  0  0  0  0  0  0  0  0  0
   -3.0501   -0.1023    1.3039 H   0  0  0  0  0  0  0  0  0  0  0  0
   -2.4357   -1.2788   -0.1279 O   0  0  0  0  0  1  0  0  0  0  0  0
  1  3  1  0  0  0  0
  2  1  1  0  0  0  0
  4  7  1  0  0  0  0
  4  1  1  0  0  0  0
  4  5  1  0  0  0  0
  6  4  1  0  0  0  0
  8  1  1  0  0  0  0
  8 11  1  0  0  0  0
  8 10  1  0  0  0  0
  9  8  1  0  0  0  0
 11 13  1  0  0  0  0
 12 11  1  0  0  0  0
 14 11  1  0  0  0  0
M  END
$$$$
Title Card Required
 OpenBabel07152211483D

 14 13  0  0  0  0  0  0  0  0999 V2000
   -0.9669    1.0800    0.0943 C   0  0  0  0  0  0  0  0  0  0  0  0
   -0.3792    1.6880   -0.4830 H   0  0  0  0  0  0  0  0  0  0  0  0
   -0.6696    1.3064    1.0896 H   0  0  0  0  0  0  0  0  0  0  0  0
   -0.3963   -0.3758   -0.1291 C   0  0  0  0  0  0  0  0  0  0  0  0
   -0.4410   -1.0944    0.5559 H   0  0  0  0  0  0  0  0  0  0  0  0
   -0.3329   -0.9205   -1.0117 H   0  0  0  0  0  0  0  0  0  0  0  0
    1.7466   -0.0230    0.0165 Br  0  0  0  0  0  0  0  0  0  0  0  0
   -2.5025    1.1478   -0.1917 C   0  0  0  0  0  0  0  0  0  0  0  0
   -2.4590    1.2749   -1.2910 H   0  0  0  0  0  0  0  0  0  0  0  0
   -2.9222    1.9536    0.3841 H   0  0  0  0  0  0  0  0  0  0  0  0
   -3.1467   -0.3189    0.2562 C   0  0  0  0  0  0  0  0  0  0  0  0
   -4.1281   -0.1529   -0.2279 H   0  0  0  0  0  0  0  0  0  0  0  0
   -3.1166   -0.0819    1.3625 H   0  0  0  0  0  0  0  0  0  0  0  0
   -2.4461   -1.2871   -0.1275 O   0  0  0  0  0  1  0  0  0  0  0  0
  1  3  1  0  0  0  0
  2  1  1  0  0  0  0
  4  7  1  0  0  0  0
  4  1  1  0  0  0  0
  4  5  1  0  0  0  0
  6  4  1  0  0  0  0
  8  1  1  0  0  0  0
  8 11  1  0  0  0  0
  8 10  1  0  0  0  0
  9  8  1  0  0  0  0
 11 13  1  0  0  0  0
 12 11  1  0  0  0  0
 14 11  1  0  0  0  0
M  END
$$$$
Title Card Required
 OpenBabel07152211483D

 14 13  0  0  0  0  0  0  0  0999 V2000
   -0.9867    1.0795    0.1064 C   0  0  0  0  0  0  0  0  0  0  0  0
   -0.4588    1.6808   -0.5907 H   0  0  0  0  0  0  0  0  0  0  0  0
   -0.6371    1.2519    1.1247 H   0  0  0  0  0  0  0  0  0  0  0  0
   -0.3965   -0.3731   -0.1238 C   0  0  0  0  0  0  0  0  0  0  0  0
   -0.4333   -1.1379    0.5338 H   0  0  0  0  0  0  0  0  0  0  0  0
   -0.3667   -0.9542   -1.0638 H   0  0  0  0  0  0  0  0  0  0  0  0
    1.7495   -0.0222    0.0167 Br  0  0  0  0  0  0  0  0  0  0  0  0
   -2.4964    1.1515   -0.1935 C   0  0  0  0  0  0  0  0  0  0  0  0
   -2.4446    1.3203   -1.3239 H   0  0  0  0  0  0  0  0  0  0  0  0
   -2.8807    1.9241    0.3383 H   0  0  0  0  0  0  0  0  0  0  0  0
   -3.1339   -0.3025    0.2526 C   0  0  0  0  0  0  0  0  0  0  0  0
   -4.1138   -0.1924   -0.2067 H   0  0  0  0  0  0  0  0  0  0  0  0
   -3.1997   -0.0683    1.4281 H   0  0  0  0  0  0  0  0  0  0  0  0
   -2.4545   -1.2985   -0.1285 O   0  0  0  0  0  1  0  0  0  0  0  0
  1  3  1  0  0  0  0
  2  1  1  0  0  0  0
  4  7  1  0  0  0  0
  4  1  1  0  0  0  0
  4  5  1  0  0  0  0
  6  4  1  0  0  0  0
  8  1  1  0  0  0  0
  8 11  1  0  0  0  0
  8 10  1  0  0  0  0
  9  8  1  0  0  0  0
 11 13  1  0  0  0  0
 12 11  1  0  0  0  0
 14 11  1  0  0  0  0
M  END
$$$$
Title Card Required
 OpenBabel07152211483D

 14 13  0  0  0  0  0  0  0  0999 V2000
   -1.0063    1.0741    0.1183 C   0  0  0  0  0  0  0  0  0  0  0  0
   -0.5220    1.6916   -0.7051 H   0  0  0  0  0  0  0  0  0  0  0  0
   -0.6110    1.2097    1.1659 H   0  0  0  0  0  0  0  0  0  0  0  0
   -0.3964   -0.3676   -0.1226 C   0  0  0  0  0  0  0  0  0  0  0  0
   -0.4303   -1.2119    0.5659 H   0  0  0  0  0  0  0  0  0  0  0  0
   -0.4055   -0.9669   -1.1201 H   0  0  0  0  0  0  0  0  0  0  0  0
    1.7525   -0.0213    0.0168 Br  0  0  0  0  0  0  0  0  0  0  0  0
   -2.4863    1.1496   -0.1985 C   0  0  0  0  0  0  0  0  0  0  0  0
   -2.4481    1.3619   -1.3379 H   0  0  0  0  0  0  0  0  0  0  0  0
   -2.8699    1.9446    0.3183 H   0  0  0  0  0  0  0  0  0  0  0  0
   -3.1207   -0.2807    0.2505 C   0  0  0  0  0  0  0  0  0  0  0  0
   -4.1284   -0.2343   -0.1827 H   0  0  0  0  0  0  0  0  0  0  0  0
   -3.2886   -0.0638    1.4764 H   0  0  0  0  0  0  0  0  0  0  0  0
   -2.4614   -1.3118   -0.1302 O   0  0  0  0  0  1  0  0  0  0  0  0
  1  3  1  0  0  0  0
  2  1  1  0  0  0  0
  4  7  1  0  0  0  0
  4  1  1  0  0  0  0
  4  5  1  0  0  0  0
  6  4  1  0  0  0  0
  8  1  1  0  0  0  0
  8 11  1  0  0  0  0
  8 10  1  0  0  0  0
  9  8  1  0  0  0  0
 11 13  1  0  0  0  0
 12 11  1  0  0  0  0
 14 11  1  0  0  0  0
M  END
$$$$
Title Card Required
 OpenBabel07152211483D

 14 13  0  0  0  0  0  0  0  0999 V2000
   -1.0238    1.0651    0.1293 C   0  0  0  0  0  0  0  0  0  0  0  0
   -0.5839    1.6998   -0.7960 H   0  0  0  0  0  0  0  0  0  0  0  0
   -0.5978    1.1822    1.1950 H   0  0  0  0  0  0  0  0  0  0  0  0
   -0.3961   -0.3640   -0.1246 C   0  0  0  0  0  0  0  0  0  0  0  0
   -0.4302   -1.2769    0.6155 H   0  0  0  0  0  0  0  0  0  0  0  0
   -0.4503   -0.9436   -1.1562 H   0  0  0  0  0  0  0  0  0  0  0  0
    1.7557   -0.0204    0.0170 Br  0  0  0  0  0  0  0  0  0  0  0  0
   -2.4729    1.1422   -0.2067 C   0  0  0  0  0  0  0  0  0  0  0  0
   -2.4694    1.3955   -1.3250 H   0  0  0  0  0  0  0  0  0  0  0  0
   -2.8886    2.0130    0.3214 H   0  0  0  0  0  0  0  0  0  0  0  0
   -3.1078   -0.2532    0.2499 C   0  0  0  0  0  0  0  0  0  0  0  0
   -4.1670   -0.2765   -0.1544 H   0  0  0  0  0  0  0  0  0  0  0  0
   -3.3781   -0.0683    1.4955 H   0  0  0  0  0  0  0  0  0  0  0  0
   -2.4677   -1.3270   -0.1322 O   0  0  0  0  0  1  0  0  0  0  0  0
  1  3  1  0  0  0  0
  2  1  1  0  0  0  0
  4  7  1  0  0  0  0
  4  1  1  0  0  0  0
  4  5  1  0  0  0  0
  6  4  1  0  0  0  0
  8  1  1  0  0  0  0
  8 11  1  0  0  0  0
  8 10  1  0  0  0  0
  9  8  1  0  0  0  0
 11 13  1  0  0  0  0
 12 11  1  0  0  0  0
 14 11  1  0  0  0  0
M  END
$$$$
Title Card Required
 OpenBabel07152211483D

 14 13  0  0  0  0  0  0  0  0999 V2000
   -1.0364    1.0522    0.1381 C   0  0  0  0  0  0  0  0  0  0  0  0
   -0.6488    1.6892   -0.8271 H   0  0  0  0  0  0  0  0  0  0  0  0
   -0.6091    1.1787    1.1935 H   0  0  0  0  0  0  0  0  0  0  0  0
   -0.3961   -0.3670   -0.1292 C   0  0  0  0  0  0  0  0  0  0  0  0
   -0.4327   -1.2897    0.6508 H   0  0  0  0  0  0  0  0  0  0  0  0
   -0.5006   -0.8678   -1.1501 H   0  0  0  0  0  0  0  0  0  0  0  0
    1.7595   -0.0193    0.0172 Br  0  0  0  0  0  0  0  0  0  0  0  0
   -2.4590    1.1317   -0.2158 C   0  0  0  0  0  0  0  0  0  0  0  0
   -2.5121    1.4140   -1.2823 H   0  0  0  0  0  0  0  0  0  0  0  0
   -2.9209    2.0949    0.3251 H   0  0  0  0  0  0  0  0  0  0  0  0
   -3.0976   -0.2201    0.2504 C   0  0  0  0  0  0  0  0  0  0  0  0
   -4.2141   -0.3125   -0.1169 H   0  0  0  0  0  0  0  0  0  0  0  0
   -3.4573   -0.0818    1.4684 H   0  0  0  0  0  0  0  0  0  0  0  0
   -2.4741   -1.3437   -0.1339 O   0  0  0  0  0  1  0  0  0  0  0  0
  1  3  1  0  0  0  0
  2  1  1  0  0  0  0
  4  7  1  0  0  0  0
  4  1  1  0  0  0  0
  4  5  1  0  0  0  0
  6  4  1  0  0  0  0
  8  1  1  0  0  0  0
  8 11  1  0  0  0  0
  8 10  1  0  0  0  0
  9  8  1  0  0  0  0
 11 13  1  0  0  0  0
 12 11  1  0  0  0  0
 14 11  1  0  0  0  0
M  END
$$$$
Title Card Required
 OpenBabel07152211483D

 14 13  0  0  0  0  0  0  0  0999 V2000
   -1.0390    1.0371    0.1414 C   0  0  0  0  0  0  0  0  0  0  0  0
   -0.6965    1.6552   -0.7676 H   0  0  0  0  0  0  0  0  0  0  0  0
   -0.6493    1.2082    1.1563 H   0  0  0  0  0  0  0  0  0  0  0  0
   -0.3971   -0.3773   -0.1330 C   0  0  0  0  0  0  0  0  0  0  0  0
   -0.4373   -1.2201    0.6400 H   0  0  0  0  0  0  0  0  0  0  0  0
   -0.5445   -0.7593   -1.1102 H   0  0  0  0  0  0  0  0  0  0  0  0
    1.7633   -0.0181    0.0173 Br  0  0  0  0  0  0  0  0  0  0  0  0
   -2.4510    1.1227   -0.2196 C   0  0  0  0  0  0  0  0  0  0  0  0
   -2.5686    1.4102   -1.2399 H   0  0  0  0  0  0  0  0  0  0  0  0
   -2.9385    2.1300    0.3069 H   0  0  0  0  0  0  0  0  0  0  0  0
   -3.0959   -0.1899    0.2517 C   0  0  0  0  0  0  0  0  0  0  0  0
   -4.2376   -0.3233   -0.0780 H   0  0  0  0  0  0  0  0  0  0  0  0
   -3.4938   -0.0984    1.3895 H   0  0  0  0  0  0  0  0  0  0  0  0
   -2.4803   -1.3575   -0.1345 O   0  0  0  0  0  1  0  0  0  0  0  0
  1  3  1  0  0  0  0
  2  1  1  0  0  0  0
  4  7  1  0  0  0  0
  4  1  1  0  0  0  0
  4  5  1  0  0  0  0
  6  4  1  0  0  0  0
  8  1  1  0  0  0  0
  8 11  1  0  0  0  0
  8 10  1  0  0  0  0
  9  8  1  0  0  0  0
 11 13  1  0  0  0  0
 12 11  1  0  0  0  0
 14 11  1  0  0  0  0
M  END
$$$$
Title Card Required
 OpenBabel07152211483D

 14 13  0  0  0  0  0  0  0  0999 V2000
   -1.0340    1.0208    0.1393 C   0  0  0  0  0  0  0  0  0  0  0  0
   -0.7067    1.6218   -0.6615 H   0  0  0  0  0  0  0  0  0  0  0  0
   -0.6994    1.2633    1.1173 H   0  0  0  0  0  0  0  0  0  0  0  0
   -0.3993   -0.3878   -0.1322 C   0  0  0  0  0  0  0  0  0  0  0  0
   -0.4425   -1.1153    0.6030 H   0  0  0  0  0  0  0  0  0  0  0  0
   -0.5786   -0.6691   -1.0993 H   0  0  0  0  0  0  0  0  0  0  0  0
    1.7667   -0.0171    0.0174 Br  0  0  0  0  0  0  0  0  0  0  0  0
   -2.4511    1.1175   -0.2158 C   0  0  0  0  0  0  0  0  0  0  0  0
   -2.6247    1.3923   -1.2342 H   0  0  0  0  0  0  0  0  0  0  0  0
   -2.9305    2.1023    0.2698 H   0  0  0  0  0  0  0  0  0  0  0  0
   -3.1029   -0.1687    0.2528 C   0  0  0  0  0  0  0  0  0  0  0  0
   -4.2301   -0.3056   -0.0520 H   0  0  0  0  0  0  0  0  0  0  0  0
   -3.4821   -0.1100    1.2950 H   0  0  0  0  0  0  0  0  0  0  0  0
   -2.4856   -1.3660   -0.1337 O   0  0  0  0  0  1  0  0  0  0  0  0
  1  3  1  0  0  0  0
  2  1  1  0  0  0  0
  4  7  1  0  0  0  0
  4  1  1  0  0  0  0
  4  5  1  0  0  0  0
  6  4  1  0  0  0  0
  8  1  1  0  0  0  0
  8 11  1  0  0  0  0
  8 10  1  0  0  0  0
  9  8  1  0  0  0  0
 11 13  1  0  0  0  0
 12 11  1  0  0  0  0
 14 11  1  0  0  0  0
M  END
$$$$
Title Card Required
 OpenBabel07152211483D

 14 13  0  0  0  0  0  0  0  0999 V2000
   -1.0255    1.0000    0.1350 C   0  0  0  0  0  0  0  0  0  0  0  0
   -0.6644    1.6238   -0.5676 H   0  0  0  0  0  0  0  0  0  0  0  0
   -0.7492    1.3402    1.1030 H   0  0  0  0  0  0  0  0  0  0  0  0
   -0.4025   -0.3917   -0.1297 C   0  0  0  0  0  0  0  0  0  0  0  0
   -0.4497   -1.0457    0.5989 H   0  0  0  0  0  0  0  0  0  0  0  0
   -0.6085   -0.6093   -1.1444 H   0  0  0  0  0  0  0  0  0  0  0  0
    1.7700   -0.0159    0.0173 Br  0  0  0  0  0  0  0  0  0  0  0  0
   -2.4578    1.1147   -0.2066 C   0  0  0  0  0  0  0  0  0  0  0  0
   -2.6759    1.3613   -1.2605 H   0  0  0  0  0  0  0  0  0  0  0  0
   -2.9030    2.0291    0.2252 H   0  0  0  0  0  0  0  0  0  0  0  0
   -3.1162   -0.1549    0.2509 C   0  0  0  0  0  0  0  0  0  0  0  0
   -4.2049   -0.2639   -0.0460 H   0  0  0  0  0  0  0  0  0  0  0  0
   -3.4396   -0.1134    1.2321 H   0  0  0  0  0  0  0  0  0  0  0  0
   -2.4908   -1.3701   -0.1317 O   0  0  0  0  0  1  0  0  0  0  0  0
  1  3  1  0  0  0  0
  2  1  1  0  0  0  0
  4  7  1  0  0  0  0
  4  1  1  0  0  0  0
  4  5  1  0  0  0  0
  6  4  1  0  0  0  0
  8  1  1  0  0  0  0
  8 10  1  0  0  0  0
  8 11  1  0  0  0  0
  9  8  1  0  0  0  0
 11 13  1  0  0  0  0
 12 11  1  0  0  0  0
 14 11  1  0  0  0  0
M  END
$$$$
Title Card Required
 OpenBabel07152211483D

 14 13  0  0  0  0  0  0  0  0999 V2000
   -1.0164    0.9755    0.1316 C   0  0  0  0  0  0  0  0  0  0  0  0
   -0.5686    1.6776   -0.5222 H   0  0  0  0  0  0  0  0  0  0  0  0
   -0.7954    1.4227    1.1149 H   0  0  0  0  0  0  0  0  0  0  0  0
   -0.4069   -0.3866   -0.1312 C   0  0  0  0  0  0  0  0  0  0  0  0
   -0.4596   -1.0538    0.6612 H   0  0  0  0  0  0  0  0  0  0  0  0
   -0.6273   -0.5779   -1.2088 H   0  0  0  0  0  0  0  0  0  0  0  0
    1.7731   -0.0148    0.0173 Br  0  0  0  0  0  0  0  0  0  0  0  0
   -2.4682    1.1118   -0.1972 C   0  0  0  0  0  0  0  0  0  0  0  0
   -2.7121    1.3157   -1.2946 H   0  0  0  0  0  0  0  0  0  0  0  0
   -2.8765    1.9577    0.1976 H   0  0  0  0  0  0  0  0  0  0  0  0
   -3.1320   -0.1488    0.2435 C   0  0  0  0  0  0  0  0  0  0  0  0
   -4.1817   -0.2067   -0.0648 H   0  0  0  0  0  0  0  0  0  0  0  0
   -3.3855   -0.1074    1.2506 H   0  0  0  0  0  0  0  0  0  0  0  0
   -2.4958   -1.3701   -0.1288 O   0  0  0  0  0  1  0  0  0  0  0  0
  1  3  1  0  0  0  0
  2  1  1  0  0  0  0
  4  7  1  0  0  0  0
  4  1  1  0  0  0  0
  4  5  1  0  0  0  0
  6  4  1  0  0  0  0
  8  1  1  0  0  0  0
  8 10  1  0  0  0  0
  8 11  1  0  0  0  0
  9  8  1  0  0  0  0
 11 13  1  0  0  0  0
 12 11  1  0  0  0  0
 14 11  1  0  0  0  0
M  END
$$$$
Title Card Required
 OpenBabel07152211483D

 14 13  0  0  0  0  0  0  0  0999 V2000
   -1.0071    0.9538    0.1293 C   0  0  0  0  0  0  0  0  0  0  0  0
   -0.4556    1.7445   -0.4993 H   0  0  0  0  0  0  0  0  0  0  0  0
   -0.8388    1.4878    1.1320 H   0  0  0  0  0  0  0  0  0  0  0  0
   -0.4124   -0.3781   -0.1355 C   0  0  0  0  0  0  0  0  0  0  0  0
   -0.4687   -1.0966    0.7362 H   0  0  0  0  0  0  0  0  0  0  0  0
   -0.6299   -0.5671   -1.2509 H   0  0  0  0  0  0  0  0  0  0  0  0
    1.7761   -0.0138    0.0172 Br  0  0  0  0  0  0  0  0  0  0  0  0
   -2.4782    1.1054   -0.1925 C   0  0  0  0  0  0  0  0  0  0  0  0
   -2.7292    1.2604   -1.3157 H   0  0  0  0  0  0  0  0  0  0  0  0
   -2.8744    1.9404    0.2075 H   0  0  0  0  0  0  0  0  0  0  0  0
   -3.1473   -0.1493    0.2330 C   0  0  0  0  0  0  0  0  0  0  0  0
   -4.1765   -0.1442   -0.1031 H   0  0  0  0  0  0  0  0  0  0  0  0
   -3.3281   -0.0951    1.3299 H   0  0  0  0  0  0  0  0  0  0  0  0
   -2.5008   -1.3665   -0.1254 O   0  0  0  0  0  1  0  0  0  0  0  0
  1  3  1  0  0  0  0
  2  1  1  0  0  0  0
  4  7  1  0  0  0  0
  4  1  1  0  0  0  0
  4  5  1  0  0  0  0
  6  4  1  0  0  0  0
  8  1  1  0  0  0  0
  8 10  1  0  0  0  0
  8 11  1  0  0  0  0
  9  8  1  0  0  0  0
 11 13  1  0  0  0  0
 12 11  1  0  0  0  0
 14 11  1  0  0  0  0
M  END
$$$$
Title Card Required
 OpenBabel07152211483D

 14 13  0  0  0  0  0  0  0  0999 V2000
   -0.9959    0.9378    0.1272 C   0  0  0  0  0  0  0  0  0  0  0  0
   -0.3449    1.7947   -0.4701 H   0  0  0  0  0  0  0  0  0  0  0  0
   -0.8843    1.5253    1.1395 H   0  0  0  0  0  0  0  0  0  0  0  0
   -0.4194   -0.3701   -0.1401 C   0  0  0  0  0  0  0  0  0  0  0  0
   -0.4757   -1.1368    0.7813 H   0  0  0  0  0  0  0  0  0  0  0  0
   -0.6150   -0.5715   -1.2576 H   0  0  0  0  0  0  0  0  0  0  0  0
    1.7792   -0.0127    0.0170 Br  0  0  0  0  0  0  0  0  0  0  0  0
   -2.4872    1.0941   -0.1935 C   0  0  0  0  0  0  0  0  0  0  0  0
   -2.7287    1.1941   -1.3174 H   0  0  0  0  0  0  0  0  0  0  0  0
   -2.8985    1.9813    0.2554 H   0  0  0  0  0  0  0  0  0  0  0  0
   -3.1632   -0.1560    0.2229 C   0  0  0  0  0  0  0  0  0  0  0  0
   -4.1936   -0.0751   -0.1573 H   0  0  0  0  0  0  0  0  0  0  0  0
   -3.2618   -0.0780    1.4262 H   0  0  0  0  0  0  0  0  0  0  0  0
   -2.5069   -1.3590   -0.1215 O   0  0  0  0  0  1  0  0  0  0  0  0
  1  3  1  0  0  0  0
  2  1  1  0  0  0  0
  4  7  1  0  0  0  0
  4  1  1  0  0  0  0
  4  5  1  0  0  0  0
  6  4  1  0  0  0  0
  8  1  1  0  0  0  0
  8 11  1  0  0  0  0
  8 10  1  0  0  0  0
  9  8  1  0  0  0  0
 11 13  1  0  0  0  0
 12 11  1  0  0  0  0
 14 11  1  0  0  0  0
M  END
$$$$
Title Card Required
 OpenBabel07152211483D

 14 13  0  0  0  0  0  0  0  0999 V2000
   -0.9820    0.9326    0.1256 C   0  0  0  0  0  0  0  0  0  0  0  0
   -0.2594    1.8017   -0.4217 H   0  0  0  0  0  0  0  0  0  0  0  0
   -0.9299    1.5164    1.1281 H   0  0  0  0  0  0  0  0  0  0  0  0
   -0.4272   -0.3664   -0.1428 C   0  0  0  0  0  0  0  0  0  0  0  0
   -0.4791   -1.1490    0.7617 H   0  0  0  0  0  0  0  0  0  0  0  0
   -0.5798   -0.5930   -1.2190 H   0  0  0  0  0  0  0  0  0  0  0  0
    1.7826   -0.0115    0.0168 Br  0  0  0  0  0  0  0  0  0  0  0  0
   -2.4958    1.0808   -0.2000 C   0  0  0  0  0  0  0  0  0  0  0  0
   -2.7088    1.1203   -1.2964 H   0  0  0  0  0  0  0  0  0  0  0  0
   -2.9320    2.0430    0.3196 H   0  0  0  0  0  0  0  0  0  0  0  0
   -3.1801   -0.1701    0.2165 C   0  0  0  0  0  0  0  0  0  0  0  0
   -4.2278   -0.0034   -0.2173 H   0  0  0  0  0  0  0  0  0  0  0  0
   -3.1916   -0.0581    1.4985 H   0  0  0  0  0  0  0  0  0  0  0  0
   -2.5152   -1.3461   -0.1171 O   0  0  0  0  0  1  0  0  0  0  0  0
  1  3  1  0  0  0  0
  2  1  1  0  0  0  0
  4  7  1  0  0  0  0
  4  1  1  0  0  0  0
  4  5  1  0  0  0  0
  6  4  1  0  0  0  0
  8  1  1  0  0  0  0
  8 11  1  0  0  0  0
  8 10  1  0  0  0  0
  9  8  1  0  0  0  0
 11 13  1  0  0  0  0
 12 11  1  0  0  0  0
 14 11  1  0  0  0  0
M  END
$$$$
Title Card Required
 OpenBabel07152211483D

 14 13  0  0  0  0  0  0  0  0999 V2000
   -0.9675    0.9422    0.1245 C   0  0  0  0  0  0  0  0  0  0  0  0
   -0.2289    1.7504   -0.3589 H   0  0  0  0  0  0  0  0  0  0  0  0
   -0.9645    1.4535    1.1056 H   0  0  0  0  0  0  0  0  0  0  0  0
   -0.4339   -0.3691   -0.1408 C   0  0  0  0  0  0  0  0  0  0  0  0
   -0.4783   -1.1208    0.6689 H   0  0  0  0  0  0  0  0  0  0  0  0
   -0.5314   -0.6334   -1.1575 H   0  0  0  0  0  0  0  0  0  0  0  0
    1.7861   -0.0103    0.0165 Br  0  0  0  0  0  0  0  0  0  0  0  0
   -2.5030    1.0703   -0.2084 C   0  0  0  0  0  0  0  0  0  0  0  0
   -2.6761    1.0570   -1.2705 H   0  0  0  0  0  0  0  0  0  0  0  0
   -2.9512    2.0708    0.3605 H   0  0  0  0  0  0  0  0  0  0  0  0
   -3.1966   -0.1900    0.2163 C   0  0  0  0  0  0  0  0  0  0  0  0
   -4.2574    0.0512   -0.2583 H   0  0  0  0  0  0  0  0  0  0  0  0
   -3.1394   -0.0416    1.5115 H   0  0  0  0  0  0  0  0  0  0  0  0
   -2.5257   -1.3287   -0.1129 O   0  0  0  0  0  1  0  0  0  0  0  0
  1  3  1  0  0  0  0
  2  1  1  0  0  0  0
  4  7  1  0  0  0  0
  4  1  1  0  0  0  0
  4  5  1  0  0  0  0
  6  4  1  0  0  0  0
  8  1  1  0  0  0  0
  8 11  1  0  0  0  0
  8 10  1  0  0  0  0
  9  8  1  0  0  0  0
 11 13  1  0  0  0  0
 12 11  1  0  0  0  0
 14 11  1  0  0  0  0
M  END
$$$$
Title Card Required
 OpenBabel07152211483D

 14 13  0  0  0  0  0  0  0  0999 V2000
   -0.9550    0.9613    0.1227 C   0  0  0  0  0  0  0  0  0  0  0  0
   -0.2483    1.6661   -0.3006 H   0  0  0  0  0  0  0  0  0  0  0  0
   -0.9826    1.3612    1.1031 H   0  0  0  0  0  0  0  0  0  0  0  0
   -0.4383   -0.3742   -0.1348 C   0  0  0  0  0  0  0  0  0  0  0  0
   -0.4757   -1.0903    0.5623 H   0  0  0  0  0  0  0  0  0  0  0  0
   -0.4822   -0.6905   -1.1219 H   0  0  0  0  0  0  0  0  0  0  0  0
    1.7893   -0.0092    0.0162 Br  0  0  0  0  0  0  0  0  0  0  0  0
   -2.5078    1.0645   -0.2146 C   0  0  0  0  0  0  0  0  0  0  0  0
   -2.6435    1.0162   -1.2699 H   0  0  0  0  0  0  0  0  0  0  0  0
   -2.9491    2.0476    0.3598 H   0  0  0  0  0  0  0  0  0  0  0  0
   -3.2106   -0.2107    0.2217 C   0  0  0  0  0  0  0  0  0  0  0  0
   -4.2681    0.0757   -0.2671 H   0  0  0  0  0  0  0  0  0  0  0  0
   -3.1192   -0.0334    1.4668 H   0  0  0  0  0  0  0  0  0  0  0  0
   -2.5373   -1.3097   -0.1096 O   0  0  0  0  0  1  0  0  0  0  0  0
  1  3  1  0  0  0  0
  2  1  1  0  0  0  0
  4  7  1  0  0  0  0
  4  1  1  0  0  0  0
  4  5  1  0  0  0  0
  6  4  1  0  0  0  0
  8  1  1  0  0  0  0
  8 11  1  0  0  0  0
  8 10  1  0  0  0  0
  9  8  1  0  0  0  0
 11 13  1  0  0  0  0
 12 11  1  0  0  0  0
 14 11  1  0  0  0  0
M  END
$$$$
Title Card Required
 OpenBabel07152211483D

 14 13  0  0  0  0  0  0  0  0999 V2000
   -0.9472    0.9824    0.1204 C   0  0  0  0  0  0  0  0  0  0  0  0
   -0.2735    1.5984   -0.2702 H   0  0  0  0  0  0  0  0  0  0  0  0
   -0.9873    1.2575    1.1435 H   0  0  0  0  0  0  0  0  0  0  0  0
   -0.4407   -0.3757   -0.1297 C   0  0  0  0  0  0  0  0  0  0  0  0
   -0.4749   -1.1175    0.5120 H   0  0  0  0  0  0  0  0  0  0  0  0
   -0.4338   -0.7606   -1.1252 H   0  0  0  0  0  0  0  0  0  0  0  0
    1.7925   -0.0083    0.0159 Br  0  0  0  0  0  0  0  0  0  0  0  0
   -2.5102    1.0621   -0.2185 C   0  0  0  0  0  0  0  0  0  0  0  0
   -2.6144    0.9957   -1.2998 H   0  0  0  0  0  0  0  0  0  0  0  0
   -2.9309    1.9831    0.3213 H   0  0  0  0  0  0  0  0  0  0  0  0
   -3.2228   -0.2298    0.2315 C   0  0  0  0  0  0  0  0  0  0  0  0
   -4.2620    0.0718   -0.2471 H   0  0  0  0  0  0  0  0  0  0  0  0
   -3.1311   -0.0344    1.3826 H   0  0  0  0  0  0  0  0  0  0  0  0
   -2.5499   -1.2903   -0.1074 O   0  0  0  0  0  1  0  0  0  0  0  0
  1  3  1  0  0  0  0
  2  1  1  0  0  0  0
  4  7  1  0  0  0  0
  4  1  1  0  0  0  0
  4  5  1  0  0  0  0
  6  4  1  0  0  0  0
  8  1  1  0  0  0  0
  8 11  1  0  0  0  0
  8 10  1  0  0  0  0
  9  8  1  0  0  0  0
 11 13  1  0  0  0  0
 12 11  1  0  0  0  0
 14 11  1  0  0  0  0
M  END
$$$$
Title Card Required
 OpenBabel07152211483D

 14 13  0  0  0  0  0  0  0  0999 V2000
   -0.9477    0.9981    0.1205 C   0  0  0  0  0  0  0  0  0  0  0  0
   -0.2570    1.5963   -0.2889 H   0  0  0  0  0  0  0  0  0  0  0  0
   -0.9805    1.1564    1.2136 H   0  0  0  0  0  0  0  0  0  0  0  0
   -0.4415   -0.3734   -0.1288 C   0  0  0  0  0  0  0  0  0  0  0  0
   -0.4774   -1.2050    0.5307 H   0  0  0  0  0  0  0  0  0  0  0  0
   -0.3900   -0.8251   -1.1446 H   0  0  0  0  0  0  0  0  0  0  0  0
    1.7955   -0.0075    0.0156 Br  0  0  0  0  0  0  0  0  0  0  0  0
   -2.5098    1.0613   -0.2222 C   0  0  0  0  0  0  0  0  0  0  0  0
   -2.5901    0.9932   -1.3398 H   0  0  0  0  0  0  0  0  0  0  0  0
   -2.9100    1.9092    0.2635 H   0  0  0  0  0  0  0  0  0  0  0  0
   -3.2327   -0.2442    0.2429 C   0  0  0  0  0  0  0  0  0  0  0  0
   -4.2482    0.0449   -0.2076 H   0  0  0  0  0  0  0  0  0  0  0  0
   -3.1704   -0.0419    1.2963 H   0  0  0  0  0  0  0  0  0  0  0  0
   -2.5618   -1.2733   -0.1066 O   0  0  0  0  0  1  0  0  0  0  0  0
  1  3  1  0  0  0  0
  2  1  1  0  0  0  0
  4  7  1  0  0  0  0
  4  1  1  0  0  0  0
  4  5  1  0  0  0  0
  6  4  1  0  0  0  0
  8  1  1  0  0  0  0
  8 11  1  0  0  0  0
  8 10  1  0  0  0  0
  9  8  1  0  0  0  0
 11 13  1  0  0  0  0
 12 11  1  0  0  0  0
 14 11  1  0  0  0  0
M  END
$$$$
Title Card Required
 OpenBabel07152211483D

 14 13  0  0  0  0  0  0  0  0999 V2000
   -0.9555    1.0090    0.1247 C   0  0  0  0  0  0  0  0  0  0  0  0
   -0.2063    1.6498   -0.3428 H   0  0  0  0  0  0  0  0  0  0  0  0
   -0.9626    1.0571    1.2840 H   0  0  0  0  0  0  0  0  0  0  0  0
   -0.4409   -0.3731   -0.1305 C   0  0  0  0  0  0  0  0  0  0  0  0
   -0.4817   -1.2984    0.5722 H   0  0  0  0  0  0  0  0  0  0  0  0
   -0.3513   -0.8738   -1.1569 H   0  0  0  0  0  0  0  0  0  0  0  0
    1.7985   -0.0067    0.0153 Br  0  0  0  0  0  0  0  0  0  0  0  0
   -2.5057    1.0583   -0.2293 C   0  0  0  0  0  0  0  0  0  0  0  0
   -2.5687    1.0052   -1.3717 H   0  0  0  0  0  0  0  0  0  0  0  0
   -2.9058    1.8679    0.2093 H   0  0  0  0  0  0  0  0  0  0  0  0
   -3.2411   -0.2538    0.2533 C   0  0  0  0  0  0  0  0  0  0  0  0
   -4.2394    0.0006   -0.1580 H   0  0  0  0  0  0  0  0  0  0  0  0
   -3.2320   -0.0488    1.2525 H   0  0  0  0  0  0  0  0  0  0  0  0
   -2.5728   -1.2593   -0.1074 O   0  0  0  0  0  1  0  0  0  0  0  0
  1  3  1  0  0  0  0
  2  1  1  0  0  0  0
  4  7  1  0  0  0  0
  4  1  1  0  0  0  0
  4  5  1  0  0  0  0
  6  4  1  0  0  0  0
  8  1  1  0  0  0  0
  8 10  1  0  0  0  0
  8 11  1  0  0  0  0
  9  8  1  0  0  0  0
 11 13  1  0  0  0  0
 12 11  1  0  0  0  0
 14 11  1  0  0  0  0
M  END
$$$$
Title Card Required
 OpenBabel07152211483D

 14 13  0  0  0  0  0  0  0  0999 V2000
   -0.9684    1.0177    0.1339 C   0  0  0  0  0  0  0  0  0  0  0  0
   -0.1600    1.7290   -0.4045 H   0  0  0  0  0  0  0  0  0  0  0  0
   -0.9309    0.9586    1.3288 H   0  0  0  0  0  0  0  0  0  0  0  0
   -0.4384   -0.3799   -0.1337 C   0  0  0  0  0  0  0  0  0  0  0  0
   -0.4870   -1.3567    0.6062 H   0  0  0  0  0  0  0  0  0  0  0  0
   -0.3180   -0.8984   -1.1468 H   0  0  0  0  0  0  0  0  0  0  0  0
    1.8020   -0.0059    0.0150 Br  0  0  0  0  0  0  0  0  0  0  0  0
   -2.4956    1.0496   -0.2435 C   0  0  0  0  0  0  0  0  0  0  0  0
   -2.5475    1.0314   -1.3840 H   0  0  0  0  0  0  0  0  0  0  0  0
   -2.9385    1.8987    0.1734 H   0  0  0  0  0  0  0  0  0  0  0  0
   -3.2487   -0.2578    0.2611 C   0  0  0  0  0  0  0  0  0  0  0  0
   -4.2547   -0.0618   -0.1051 H   0  0  0  0  0  0  0  0  0  0  0  0
   -3.3205   -0.0484    1.2974 H   0  0  0  0  0  0  0  0  0  0  0  0
   -2.5834   -1.2485   -0.1105 O   0  0  0  0  0  1  0  0  0  0  0  0
  1  3  1  0  0  0  0
  2  1  1  0  0  0  0
  4  7  1  0  0  0  0
  4  1  1  0  0  0  0
  4  5  1  0  0  0  0
  6  4  1  0  0  0  0
  8  1  1  0  0  0  0
  8 10  1  0  0  0  0
  8 11  1  0  0  0  0
  9  8  1  0  0  0  0
 11 13  1  0  0  0  0
 12 11  1  0  0  0  0
 14 11  1  0  0  0  0
M  END
$$$$
Title Card Required
 OpenBabel07152211483D

 14 13  0  0  0  0  0  0  0  0999 V2000
   -0.9812    1.0233    0.1462 C   0  0  0  0  0  0  0  0  0  0  0  0
   -0.1636    1.7868   -0.4338 H   0  0  0  0  0  0  0  0  0  0  0  0
   -0.8944    0.8912    1.3200 H   0  0  0  0  0  0  0  0  0  0  0  0
   -0.4341   -0.3951   -0.1369 C   0  0  0  0  0  0  0  0  0  0  0  0
   -0.4912   -1.3411    0.6080 H   0  0  0  0  0  0  0  0  0  0  0  0
   -0.2997   -0.8902   -1.1147 H   0  0  0  0  0  0  0  0  0  0  0  0
    1.8054   -0.0051    0.0148 Br  0  0  0  0  0  0  0  0  0  0  0  0
   -2.4831    1.0390   -0.2608 C   0  0  0  0  0  0  0  0  0  0  0  0
   -2.5303    1.0629   -1.3726 H   0  0  0  0  0  0  0  0  0  0  0  0
   -2.9908    1.9766    0.1502 H   0  0  0  0  0  0  0  0  0  0  0  0
   -3.2541   -0.2535    0.2669 C   0  0  0  0  0  0  0  0  0  0  0  0
   -4.3039   -0.1273   -0.0683 H   0  0  0  0  0  0  0  0  0  0  0  0
   -3.4145   -0.0440    1.4063 H   0  0  0  0  0  0  0  0  0  0  0  0
   -2.5910   -1.2443   -0.1155 O   0  0  0  0  0  1  0  0  0  0  0  0
  1  3  1  0  0  0  0
  2  1  1  0  0  0  0
  4  7  1  0  0  0  0
  4  1  1  0  0  0  0
  4  5  1  0  0  0  0
  6  4  1  0  0  0  0
  8  1  1  0  0  0  0
  8 10  1  0  0  0  0
  8 11  1  0  0  0  0
  9  8  1  0  0  0  0
 11 13  1  0  0  0  0
 12 11  1  0  0  0  0
 14 11  1  0  0  0  0
M  END
$$$$
Title Card Required
 OpenBabel07152211483D

 14 13  0  0  0  0  0  0  0  0999 V2000
   -0.9915    1.0258    0.1592 C   0  0  0  0  0  0  0  0  0  0  0  0
   -0.2236    1.8068   -0.4207 H   0  0  0  0  0  0  0  0  0  0  0  0
   -0.8603    0.8620    1.2690 H   0  0  0  0  0  0  0  0  0  0  0  0
   -0.4284   -0.4155   -0.1384 C   0  0  0  0  0  0  0  0  0  0  0  0
   -0.4939   -1.2622    0.5809 H   0  0  0  0  0  0  0  0  0  0  0  0
   -0.2942   -0.8636   -1.0848 H   0  0  0  0  0  0  0  0  0  0  0  0
    1.8087   -0.0044    0.0145 Br  0  0  0  0  0  0  0  0  0  0  0  0
   -2.4720    1.0315   -0.2764 C   0  0  0  0  0  0  0  0  0  0  0  0
   -2.5165    1.0920   -1.3553 H   0  0  0  0  0  0  0  0  0  0  0  0
   -3.0306    2.0428    0.1176 H   0  0  0  0  0  0  0  0  0  0  0  0
   -3.2592   -0.2420    0.2740 C   0  0  0  0  0  0  0  0  0  0  0  0
   -4.3684   -0.1905   -0.0456 H   0  0  0  0  0  0  0  0  0  0  0  0
   -3.4975   -0.0439    1.5127 H   0  0  0  0  0  0  0  0  0  0  0  0
   -2.5960   -1.2454   -0.1217 O   0  0  0  0  0  1  0  0  0  0  0  0
  1  3  1  0  0  0  0
  2  1  1  0  0  0  0
  4  7  1  0  0  0  0
  4  1  1  0  0  0  0
  4  5  1  0  0  0  0
  6  4  1  0  0  0  0
  8 10  1  0  0  0  0
  8  1  1  0  0  0  0
  8 11  1  0  0  0  0
  9  8  1  0  0  0  0
 11 13  1  0  0  0  0
 12 11  1  0  0  0  0
 14 11  1  0  0  0  0
M  END
$$$$
Title Card Required
 OpenBabel07152211483D

 14 13  0  0  0  0  0  0  0  0999 V2000
   -0.9991    1.0250    0.1707 C   0  0  0  0  0  0  0  0  0  0  0  0
   -0.3356    1.7859   -0.3646 H   0  0  0  0  0  0  0  0  0  0  0  0
   -0.8312    0.8710    1.2061 H   0  0  0  0  0  0  0  0  0  0  0  0
   -0.4217   -0.4359   -0.1382 C   0  0  0  0  0  0  0  0  0  0  0  0
   -0.4967   -1.1603    0.5557 H   0  0  0  0  0  0  0  0  0  0  0  0
   -0.2971   -0.8359   -1.0883 H   0  0  0  0  0  0  0  0  0  0  0  0
    1.8120   -0.0038    0.0143 Br  0  0  0  0  0  0  0  0  0  0  0  0
   -2.4642    1.0290   -0.2877 C   0  0  0  0  0  0  0  0  0  0  0  0
   -2.5054    1.1149   -1.3531 H   0  0  0  0  0  0  0  0  0  0  0  0
   -3.0427    2.0723    0.0674 H   0  0  0  0  0  0  0  0  0  0  0  0
   -3.2659   -0.2249    0.2832 C   0  0  0  0  0  0  0  0  0  0  0  0
   -4.4233   -0.2491   -0.0288 H   0  0  0  0  0  0  0  0  0  0  0  0
   -3.5611   -0.0496    1.5854 H   0  0  0  0  0  0  0  0  0  0  0  0
   -2.5993   -1.2503   -0.1283 O   0  0  0  0  0  1  0  0  0  0  0  0
  1  3  1  0  0  0  0
  2  1  1  0  0  0  0
  4  7  1  0  0  0  0
  4  1  1  0  0  0  0
  4  5  1  0  0  0  0
  6  4  1  0  0  0  0
  8 10  1  0  0  0  0
  8  1  1  0  0  0  0
  8 11  1  0  0  0  0
  9  8  1  0  0  0  0
 11 13  1  0  0  0  0
 12 11  1  0  0  0  0
 14 11  1  0  0  0  0
M  END
$$$$
Title Card Required
 OpenBabel07152211483D

 14 13  0  0  0  0  0  0  0  0999 V2000
   -1.0063    1.0181    0.1780 C   0  0  0  0  0  0  0  0  0  0  0  0
   -0.4745    1.7469   -0.2830 H   0  0  0  0  0  0  0  0  0  0  0  0
   -0.8058    0.9175    1.1831 H   0  0  0  0  0  0  0  0  0  0  0  0
   -0.4135   -0.4493   -0.1409 C   0  0  0  0  0  0  0  0  0  0  0  0
   -0.5049   -1.1048    0.5973 H   0  0  0  0  0  0  0  0  0  0  0  0
   -0.3074   -0.8170   -1.1404 H   0  0  0  0  0  0  0  0  0  0  0  0
    1.8155   -0.0031    0.0142 Br  0  0  0  0  0  0  0  0  0  0  0  0
   -2.4614    1.0326   -0.2930 C   0  0  0  0  0  0  0  0  0  0  0  0
   -2.4959    1.1263   -1.3775 H   0  0  0  0  0  0  0  0  0  0  0  0
   -3.0186    2.0531   -0.0012 H   0  0  0  0  0  0  0  0  0  0  0  0
   -3.2760   -0.2042    0.2942 C   0  0  0  0  0  0  0  0  0  0  0  0
   -4.4467   -0.2972   -0.0129 H   0  0  0  0  0  0  0  0  0  0  0  0
   -3.5971   -0.0597    1.6075 H   0  0  0  0  0  0  0  0  0  0  0  0
   -2.6018   -1.2575   -0.1348 O   0  0  0  0  0  1  0  0  0  0  0  0
  1  3  1  0  0  0  0
  2  1  1  0  0  0  0
  4  7  1  0  0  0  0
  4  1  1  0  0  0  0
  4  5  1  0  0  0  0
  6  4  1  0  0  0  0
  8 10  1  0  0  0  0
  8  1  1  0  0  0  0
  8 11  1  0  0  0  0
  9  8  1  0  0  0  0
 11 13  1  0  0  0  0
 12 11  1  0  0  0  0
 14 11  1  0  0  0  0
M  END
$$$$
Title Card Required
 OpenBabel07152211483D

 14 13  0  0  0  0  0  0  0  0999 V2000
   -1.0167    1.0004    0.1817 C   0  0  0  0  0  0  0  0  0  0  0  0
   -0.5609    1.7652   -0.2379 H   0  0  0  0  0  0  0  0  0  0  0  0
   -0.7882    0.9879    1.2287 H   0  0  0  0  0  0  0  0  0  0  0  0
   -0.4052   -0.4525   -0.1490 C   0  0  0  0  0  0  0  0  0  0  0  0
   -0.5177   -1.1192    0.7083 H   0  0  0  0  0  0  0  0  0  0  0  0
   -0.3261   -0.8052   -1.2040 H   0  0  0  0  0  0  0  0  0  0  0  0
    1.8188   -0.0025    0.0140 Br  0  0  0  0  0  0  0  0  0  0  0  0
   -2.4642    1.0410   -0.2927 C   0  0  0  0  0  0  0  0  0  0  0  0
   -2.4869    1.1186   -1.4120 H   0  0  0  0  0  0  0  0  0  0  0  0
   -2.9664    1.9983   -0.0698 H   0  0  0  0  0  0  0  0  0  0  0  0
   -3.2882   -0.1851    0.3048 C   0  0  0  0  0  0  0  0  0  0  0  0
   -4.4278   -0.3207    0.0011 H   0  0  0  0  0  0  0  0  0  0  0  0
   -3.5958   -0.0694    1.5705 H   0  0  0  0  0  0  0  0  0  0  0  0
   -2.6039   -1.2647   -0.1397 O   0  0  0  0  0  1  0  0  0  0  0  0
  1  3  1  0  0  0  0
  2  1  1  0  0  0  0
  4  7  1  0  0  0  0
  4  1  1  0  0  0  0
  4  5  1  0  0  0  0
  6  4  1  0  0  0  0
  8 10  1  0  0  0  0
  8  1  1  0  0  0  0
  8 11  1  0  0  0  0
  9  8  1  0  0  0  0
 11 13  1  0  0  0  0
 12 11  1  0  0  0  0
 14 11  1  0  0  0  0
M  END
$$$$
Title Card Required
 OpenBabel07152211483D

 14 13  0  0  0  0  0  0  0  0999 V2000
   -1.0295    0.9736    0.1856 C   0  0  0  0  0  0  0  0  0  0  0  0
   -0.5813    1.8521   -0.2427 H   0  0  0  0  0  0  0  0  0  0  0  0
   -0.7855    1.0670    1.2968 H   0  0  0  0  0  0  0  0  0  0  0  0
   -0.3982   -0.4515   -0.1574 C   0  0  0  0  0  0  0  0  0  0  0  0
   -0.5249   -1.1422    0.8018 H   0  0  0  0  0  0  0  0  0  0  0  0
   -0.3519   -0.7946   -1.2420 H   0  0  0  0  0  0  0  0  0  0  0  0
    1.8217   -0.0020    0.0139 Br  0  0  0  0  0  0  0  0  0  0  0  0
   -2.4706    1.0493   -0.2905 C   0  0  0  0  0  0  0  0  0  0  0  0
   -2.4770    1.0912   -1.4341 H   0  0  0  0  0  0  0  0  0  0  0  0
   -2.9142    1.9580   -0.1203 H   0  0  0  0  0  0  0  0  0  0  0  0
   -3.3005   -0.1700    0.3139 C   0  0  0  0  0  0  0  0  0  0  0  0
   -4.3828   -0.3193    0.0098 H   0  0  0  0  0  0  0  0  0  0  0  0
   -3.5625   -0.0754    1.4887 H   0  0  0  0  0  0  0  0  0  0  0  0
   -2.6059   -1.2705   -0.1426 O   0  0  0  0  0  1  0  0  0  0  0  0
  1  3  1  0  0  0  0
  2  1  1  0  0  0  0
  4  7  1  0  0  0  0
  4  1  1  0  0  0  0
  4  5  1  0  0  0  0
  6  4  1  0  0  0  0
  8 10  1  0  0  0  0
  8  1  1  0  0  0  0
  8 11  1  0  0  0  0
  9  8  1  0  0  0  0
 11 13  1  0  0  0  0
 12 11  1  0  0  0  0
 14 11  1  0  0  0  0
M  END
$$$$
Title Card Required
 OpenBabel07152211483D

 14 13  0  0  0  0  0  0  0  0999 V2000
   -1.0423    0.9417    0.1911 C   0  0  0  0  0  0  0  0  0  0  0  0
   -0.5756    1.9497   -0.2641 H   0  0  0  0  0  0  0  0  0  0  0  0
   -0.8047    1.1518    1.3488 H   0  0  0  0  0  0  0  0  0  0  0  0
   -0.3925   -0.4494   -0.1637 C   0  0  0  0  0  0  0  0  0  0  0  0
   -0.5214   -1.1450    0.8396 H   0  0  0  0  0  0  0  0  0  0  0  0
   -0.3864   -0.7812   -1.2438 H   0  0  0  0  0  0  0  0  0  0  0  0
    1.8249   -0.0015    0.0139 Br  0  0  0  0  0  0  0  0  0  0  0  0
   -2.4792    1.0535   -0.2884 C   0  0  0  0  0  0  0  0  0  0  0  0
   -2.4652    1.0409   -1.4343 H   0  0  0  0  0  0  0  0  0  0  0  0
   -2.8817    1.9815   -0.1469 H   0  0  0  0  0  0  0  0  0  0  0  0
   -3.3122   -0.1571    0.3214 C   0  0  0  0  0  0  0  0  0  0  0  0
   -4.3323   -0.2948    0.0058 H   0  0  0  0  0  0  0  0  0  0  0  0
   -3.4986   -0.0754    1.3776 H   0  0  0  0  0  0  0  0  0  0  0  0
   -2.6080   -1.2755   -0.1440 O   0  0  0  0  0  1  0  0  0  0  0  0
  1  3  1  0  0  0  0
  2  1  1  0  0  0  0
  4  7  1  0  0  0  0
  4  1  1  0  0  0  0
  4  5  1  0  0  0  0
  6  4  1  0  0  0  0
  8 10  1  0  0  0  0
  8  1  1  0  0  0  0
  8 11  1  0  0  0  0
  9  8  1  0  0  0  0
 11 13  1  0  0  0  0
 12 11  1  0  0  0  0
 14 11  1  0  0  0  0
M  END
$$$$
Title Card Required
 OpenBabel07152211483D

 14 13  0  0  0  0  0  0  0  0999 V2000
   -1.0522    0.9115    0.1982 C   0  0  0  0  0  0  0  0  0  0  0  0
   -0.5682    1.9957   -0.2779 H   0  0  0  0  0  0  0  0  0  0  0  0
   -0.8510    1.2245    1.3512 H   0  0  0  0  0  0  0  0  0  0  0  0
   -0.3888   -0.4469   -0.1647 C   0  0  0  0  0  0  0  0  0  0  0  0
   -0.5032   -1.1140    0.7913 H   0  0  0  0  0  0  0  0  0  0  0  0
   -0.4272   -0.7677   -1.2078 H   0  0  0  0  0  0  0  0  0  0  0  0
    1.8281   -0.0010    0.0137 Br  0  0  0  0  0  0  0  0  0  0  0  0
   -2.4897    1.0515   -0.2871 C   0  0  0  0  0  0  0  0  0  0  0  0
   -2.4537    0.9688   -1.4063 H   0  0  0  0  0  0  0  0  0  0  0  0
   -2.8734    2.0807   -0.1469 H   0  0  0  0  0  0  0  0  0  0  0  0
   -3.3188   -0.1469    0.3219 C   0  0  0  0  0  0  0  0  0  0  0  0
   -4.3150   -0.2485   -0.0242 H   0  0  0  0  0  0  0  0  0  0  0  0
   -3.4139   -0.0627    1.3118 H   0  0  0  0  0  0  0  0  0  0  0  0
   -2.6103   -1.2792   -0.1437 O   0  0  0  0  0  1  0  0  0  0  0  0
  1  3  1  0  0  0  0
  2  1  1  0  0  0  0
  4  7  1  0  0  0  0
  4  1  1  0  0  0  0
  4  5  1  0  0  0  0
  6  4  1  0  0  0  0
  8 10  1  0  0  0  0
  8  1  1  0  0  0  0
  8 11  1  0  0  0  0
  9  8  1  0  0  0  0
 11 13  1  0  0  0  0
 12 11  1  0  0  0  0
 14 11  1  0  0  0  0
M  END
$$$$
Title Card Required
 OpenBabel07152211483D

 14 13  0  0  0  0  0  0  0  0999 V2000
   -1.0576    0.8911    0.2058 C   0  0  0  0  0  0  0  0  0  0  0  0
   -0.5711    1.9630   -0.2744 H   0  0  0  0  0  0  0  0  0  0  0  0
   -0.9124    1.2629    1.3015 H   0  0  0  0  0  0  0  0  0  0  0  0
   -0.3875   -0.4432   -0.1597 C   0  0  0  0  0  0  0  0  0  0  0  0
   -0.4757   -1.0688    0.6851 H   0  0  0  0  0  0  0  0  0  0  0  0
   -0.4660   -0.7629   -1.1639 H   0  0  0  0  0  0  0  0  0  0  0  0
    1.8311   -0.0005    0.0136 Br  0  0  0  0  0  0  0  0  0  0  0  0
   -2.5016    1.0481   -0.2857 C   0  0  0  0  0  0  0  0  0  0  0  0
   -2.4472    0.8923   -1.3658 H   0  0  0  0  0  0  0  0  0  0  0  0
   -2.8670    2.1773   -0.1344 H   0  0  0  0  0  0  0  0  0  0  0  0
   -3.3182   -0.1409    0.3112 C   0  0  0  0  0  0  0  0  0  0  0  0
   -4.3420   -0.1910   -0.0724 H   0  0  0  0  0  0  0  0  0  0  0  0
   -3.3336   -0.0367    1.3578 H   0  0  0  0  0  0  0  0  0  0  0  0
   -2.6127   -1.2810   -0.1419 O   0  0  0  0  0  1  0  0  0  0  0  0
  1  3  1  0  0  0  0
  2  1  1  0  0  0  0
  4  7  1  0  0  0  0
  4  1  1  0  0  0  0
  4  5  1  0  0  0  0
  6  4  1  0  0  0  0
  8 10  1  0  0  0  0
  8  1  1  0  0  0  0
  8 11  1  0  0  0  0
  9  8  1  0  0  0  0
 11 13  1  0  0  0  0
 12 11  1  0  0  0  0
 14 11  1  0  0  0  0
M  END
$$$$
Title Card Required
 OpenBabel07152211483D

 14 13  0  0  0  0  0  0  0  0999 V2000
   -1.0600    0.8800    0.2120 C   0  0  0  0  0  0  0  0  0  0  0  0
   -0.5838    1.8699   -0.2581 H   0  0  0  0  0  0  0  0  0  0  0  0
   -0.9758    1.2700    1.2312 H   0  0  0  0  0  0  0  0  0  0  0  0
   -0.3873   -0.4350   -0.1528 C   0  0  0  0  0  0  0  0  0  0  0  0
   -0.4467   -1.0563    0.5958 H   0  0  0  0  0  0  0  0  0  0  0  0
   -0.5013   -0.7704   -1.1398 H   0  0  0  0  0  0  0  0  0  0  0  0
    1.8337   -0.0001    0.0135 Br  0  0  0  0  0  0  0  0  0  0  0  0
   -2.5139    1.0464   -0.2830 C   0  0  0  0  0  0  0  0  0  0  0  0
   -2.4468    0.8213   -1.3347 H   0  0  0  0  0  0  0  0  0  0  0  0
   -2.8522    2.2288   -0.1218 H   0  0  0  0  0  0  0  0  0  0  0  0
   -3.3138   -0.1383    0.2954 C   0  0  0  0  0  0  0  0  0  0  0  0
   -4.3817   -0.1293   -0.1177 H   0  0  0  0  0  0  0  0  0  0  0  0
   -3.2653   -0.0066    1.4465 H   0  0  0  0  0  0  0  0  0  0  0  0
   -2.6155   -1.2809   -0.1392 O   0  0  0  0  0  1  0  0  0  0  0  0
  1  3  1  0  0  0  0
  2  1  1  0  0  0  0
  4  7  1  0  0  0  0
  4  1  1  0  0  0  0
  4  5  1  0  0  0  0
  6  4  1  0  0  0  0
  8 10  1  0  0  0  0
  8  1  1  0  0  0  0
  8 11  1  0  0  0  0
  9  8  1  0  0  0  0
 11 13  1  0  0  0  0
 12 11  1  0  0  0  0
 14 11  1  0  0  0  0
M  END
$$$$
Title Card Required
 OpenBabel07152211483D

 14 13  0  0  0  0  0  0  0  0999 V2000
   -1.0613    0.8745    0.2154 C   0  0  0  0  0  0  0  0  0  0  0  0
   -0.6005    1.7288   -0.2369 H   0  0  0  0  0  0  0  0  0  0  0  0
   -1.0412    1.2567    1.1752 H   0  0  0  0  0  0  0  0  0  0  0  0
   -0.3876   -0.4182   -0.1475 C   0  0  0  0  0  0  0  0  0  0  0  0
   -0.4167   -1.1178    0.5701 H   0  0  0  0  0  0  0  0  0  0  0  0
   -0.5368   -0.7888   -1.1393 H   0  0  0  0  0  0  0  0  0  0  0  0
    1.8362    0.0002    0.0133 Br  0  0  0  0  0  0  0  0  0  0  0  0
   -2.5270    1.0470   -0.2785 C   0  0  0  0  0  0  0  0  0  0  0  0
   -2.4530    0.7522   -1.3207 H   0  0  0  0  0  0  0  0  0  0  0  0
   -2.8273    2.2279   -0.1133 H   0  0  0  0  0  0  0  0  0  0  0  0
   -3.3069   -0.1384    0.2778 C   0  0  0  0  0  0  0  0  0  0  0  0
   -4.4129   -0.0608   -0.1506 H   0  0  0  0  0  0  0  0  0  0  0  0
   -3.2080    0.0237    1.5232 H   0  0  0  0  0  0  0  0  0  0  0  0
   -2.6196   -1.2785   -0.1353 O   0  0  0  0  0  1  0  0  0  0  0  0
  1  3  1  0  0  0  0
  2  1  1  0  0  0  0
  4  7  1  0  0  0  0
  4  1  1  0  0  0  0
  4  5  1  0  0  0  0
  6  4  1  0  0  0  0
  8 10  1  0  0  0  0
  8  1  1  0  0  0  0
  8 11  1  0  0  0  0
  9  8  1  0  0  0  0
 11 13  1  0  0  0  0
 12 11  1  0  0  0  0
 14 11  1  0  0  0  0
M  END
$$$$
Title Card Required
 OpenBabel07152211483D

 14 13  0  0  0  0  0  0  0  0999 V2000
   -1.0644    0.8701    0.2148 C   0  0  0  0  0  0  0  0  0  0  0  0
   -0.5924    1.6005   -0.2405 H   0  0  0  0  0  0  0  0  0  0  0  0
   -1.1011    1.2353    1.1803 H   0  0  0  0  0  0  0  0  0  0  0  0
   -0.3883   -0.3963   -0.1436 C   0  0  0  0  0  0  0  0  0  0  0  0
   -0.3862   -1.2338    0.5937 H   0  0  0  0  0  0  0  0  0  0  0  0
   -0.5682   -0.8083   -1.1524 H   0  0  0  0  0  0  0  0  0  0  0  0
    1.8386    0.0006    0.0130 Br  0  0  0  0  0  0  0  0  0  0  0  0
   -2.5391    1.0496   -0.2733 C   0  0  0  0  0  0  0  0  0  0  0  0
   -2.4664    0.6959   -1.3241 H   0  0  0  0  0  0  0  0  0  0  0  0
   -2.7970    2.1697   -0.1120 H   0  0  0  0  0  0  0  0  0  0  0  0
   -3.2987   -0.1410    0.2618 C   0  0  0  0  0  0  0  0  0  0  0  0
   -4.4188    0.0049   -0.1598 H   0  0  0  0  0  0  0  0  0  0  0  0
   -3.1721    0.0480    1.5552 H   0  0  0  0  0  0  0  0  0  0  0  0
   -2.6254   -1.2737   -0.1305 O   0  0  0  0  0  1  0  0  0  0  0  0
  1  3  1  0  0  0  0
  2  1  1  0  0  0  0
  4  7  1  0  0  0  0
  4  1  1  0  0  0  0
  4  5  1  0  0  0  0
  6  4  1  0  0  0  0
  8 10  1  0  0  0  0
  8  1  1  0  0  0  0
  8 11  1  0  0  0  0
  9  8  1  0  0  0  0
 11 13  1  0  0  0  0
 12 11  1  0  0  0  0
 14 11  1  0  0  0  0
M  END
$$$$
Title Card Required
 OpenBabel07152211483D

 14 13  0  0  0  0  0  0  0  0999 V2000
   -1.0736    0.8618    0.2129 C   0  0  0  0  0  0  0  0  0  0  0  0
   -0.5198    1.5461   -0.3046 H   0  0  0  0  0  0  0  0  0  0  0  0
   -1.1546    1.2055    1.2527 H   0  0  0  0  0  0  0  0  0  0  0  0
   -0.3895   -0.3760   -0.1371 C   0  0  0  0  0  0  0  0  0  0  0  0
   -0.3543   -1.3447    0.6101 H   0  0  0  0  0  0  0  0  0  0  0  0
   -0.5922   -0.8167   -1.1602 H   0  0  0  0  0  0  0  0  0  0  0  0
    1.8411    0.0009    0.0127 Br  0  0  0  0  0  0  0  0  0  0  0  0
   -2.5488    1.0519   -0.2695 C   0  0  0  0  0  0  0  0  0  0  0  0
   -2.4889    0.6606   -1.3351 H   0  0  0  0  0  0  0  0  0  0  0  0
   -2.7701    2.0704   -0.1165 H   0  0  0  0  0  0  0  0  0  0  0  0
   -3.2889   -0.1462    0.2478 C   0  0  0  0  0  0  0  0  0  0  0  0
   -4.3931    0.0639   -0.1410 H   0  0  0  0  0  0  0  0  0  0  0  0
   -3.1622    0.0646    1.5325 H   0  0  0  0  0  0  0  0  0  0  0  0
   -2.6340   -1.2656   -0.1245 O   0  0  0  0  0  1  0  0  0  0  0  0
  1  3  1  0  0  0  0
  2  1  1  0  0  0  0
  4  7  1  0  0  0  0
  4  1  1  0  0  0  0
  4  5  1  0  0  0  0
  6  4  1  0  0  0  0
  8 10  1  0  0  0  0
  8  1  1  0  0  0  0
  8 11  1  0  0  0  0
  9  8  1  0  0  0  0
 11 13  1  0  0  0  0
 12 11  1  0  0  0  0
 14 11  1  0  0  0  0
M  END
$$$$
Title Card Required
 OpenBabel07152211483D

 14 13  0  0  0  0  0  0  0  0999 V2000
   -1.0877    0.8541    0.2127 C   0  0  0  0  0  0  0  0  0  0  0  0
   -0.4076    1.5586   -0.4003 H   0  0  0  0  0  0  0  0  0  0  0  0
   -1.1867    1.1599    1.3386 H   0  0  0  0  0  0  0  0  0  0  0  0
   -0.3905   -0.3662   -0.1274 C   0  0  0  0  0  0  0  0  0  0  0  0
   -0.3286   -1.3905    0.5864 H   0  0  0  0  0  0  0  0  0  0  0  0
   -0.6007   -0.8013   -1.1462 H   0  0  0  0  0  0  0  0  0  0  0  0
    1.8434    0.0012    0.0122 Br  0  0  0  0  0  0  0  0  0  0  0  0
   -2.5523    1.0471   -0.2706 C   0  0  0  0  0  0  0  0  0  0  0  0
   -2.5178    0.6623   -1.3419 H   0  0  0  0  0  0  0  0  0  0  0  0
   -2.7713    2.0097   -0.1168 H   0  0  0  0  0  0  0  0  0  0  0  0
   -3.2786   -0.1525    0.2389 C   0  0  0  0  0  0  0  0  0  0  0  0
   -4.3438    0.1014   -0.0973 H   0  0  0  0  0  0  0  0  0  0  0  0
   -3.1842    0.0687    1.4547 H   0  0  0  0  0  0  0  0  0  0  0  0
   -2.6450   -1.2556   -0.1181 O   0  0  0  0  0  1  0  0  0  0  0  0
  1  3  1  0  0  0  0
  2  1  1  0  0  0  0
  4  7  1  0  0  0  0
  4  1  1  0  0  0  0
  4  5  1  0  0  0  0
  6  4  1  0  0  0  0
  8 10  1  0  0  0  0
  8  1  1  0  0  0  0
  8 11  1  0  0  0  0
  9  8  1  0  0  0  0
 11 13  1  0  0  0  0
 12 11  1  0  0  0  0
 14 11  1  0  0  0  0
M  END
$$$$
Title Card Required
 OpenBabel07152211483D

 14 13  0  0  0  0  0  0  0  0999 V2000
   -1.1023    0.8533    0.2138 C   0  0  0  0  0  0  0  0  0  0  0  0
   -0.3171    1.5793   -0.4675 H   0  0  0  0  0  0  0  0  0  0  0  0
   -1.1910    1.0960    1.3862 H   0  0  0  0  0  0  0  0  0  0  0  0
   -0.3909   -0.3696   -0.1144 C   0  0  0  0  0  0  0  0  0  0  0  0
   -0.3137   -1.3509    0.5192 H   0  0  0  0  0  0  0  0  0  0  0  0
   -0.5930   -0.7618   -1.1145 H   0  0  0  0  0  0  0  0  0  0  0  0
    1.8455    0.0016    0.0117 Br  0  0  0  0  0  0  0  0  0  0  0  0
   -2.5477    1.0311   -0.2783 C   0  0  0  0  0  0  0  0  0  0  0  0
   -2.5492    0.7029   -1.3424 H   0  0  0  0  0  0  0  0  0  0  0  0
   -2.8154    2.0451   -0.1034 H   0  0  0  0  0  0  0  0  0  0  0  0
   -3.2681   -0.1580    0.2366 C   0  0  0  0  0  0  0  0  0  0  0  0
   -4.2960    0.1144   -0.0426 H   0  0  0  0  0  0  0  0  0  0  0  0
   -3.2340    0.0598    1.3418 H   0  0  0  0  0  0  0  0  0  0  0  0
   -2.6576   -1.2454   -0.1121 O   0  0  0  0  0  1  0  0  0  0  0  0
  1  3  1  0  0  0  0
  2  1  1  0  0  0  0
  4  7  1  0  0  0  0
  4  1  1  0  0  0  0
  4  5  1  0  0  0  0
  6  4  1  0  0  0  0
  8 10  1  0  0  0  0
  8  1  1  0  0  0  0
  8 11  1  0  0  0  0
  9  8  1  0  0  0  0
 11 13  1  0  0  0  0
 12 11  1  0  0  0  0
 14 11  1  0  0  0  0
M  END
$$$$
Title Card Required
 OpenBabel07152211483D

 14 13  0  0  0  0  0  0  0  0999 V2000
   -1.1129    0.8600    0.2159 C   0  0  0  0  0  0  0  0  0  0  0  0
   -0.2861    1.5816   -0.4744 H   0  0  0  0  0  0  0  0  0  0  0  0
   -1.1702    1.0274    1.3739 H   0  0  0  0  0  0  0  0  0  0  0  0
   -0.3908   -0.3823   -0.1000 C   0  0  0  0  0  0  0  0  0  0  0  0
   -0.3104   -1.2566    0.4404 H   0  0  0  0  0  0  0  0  0  0  0  0
   -0.5739   -0.7117   -1.0926 H   0  0  0  0  0  0  0  0  0  0  0  0
    1.8474    0.0019    0.0111 Br  0  0  0  0  0  0  0  0  0  0  0  0
   -2.5373    1.0124   -0.2903 C   0  0  0  0  0  0  0  0  0  0  0  0
   -2.5760    0.7692   -1.3489 H   0  0  0  0  0  0  0  0  0  0  0  0
   -2.8802    2.1099   -0.0856 H   0  0  0  0  0  0  0  0  0  0  0  0
   -3.2587   -0.1610    0.2390 C   0  0  0  0  0  0  0  0  0  0  0  0
   -4.2841    0.1068   -0.0000 H   0  0  0  0  0  0  0  0  0  0  0  0
   -3.2962    0.0460    1.2569 H   0  0  0  0  0  0  0  0  0  0  0  0
   -2.6694   -1.2380   -0.1076 O   0  0  0  0  0  1  0  0  0  0  0  0
  1  3  1  0  0  0  0
  2  1  1  0  0  0  0
  4  7  1  0  0  0  0
  4  1  1  0  0  0  0
  4  5  1  0  0  0  0
  6  4  1  0  0  0  0
  8 10  1  0  0  0  0
  8  1  1  0  0  0  0
  8 11  1  0  0  0  0
  9  8  1  0  0  0  0
 11 13  1  0  0  0  0
 12 11  1  0  0  0  0
 14 11  1  0  0  0  0
M  END
$$$$
Title Card Required
 OpenBabel07152211483D

 14 13  0  0  0  0  0  0  0  0999 V2000
   -1.1176    0.8736    0.2179 C   0  0  0  0  0  0  0  0  0  0  0  0
   -0.3255    1.5565   -0.4120 H   0  0  0  0  0  0  0  0  0  0  0  0
   -1.1301    0.9620    1.3124 H   0  0  0  0  0  0  0  0  0  0  0  0
   -0.3914   -0.3947   -0.0873 C   0  0  0  0  0  0  0  0  0  0  0  0
   -0.3097   -1.2052    0.4151 H   0  0  0  0  0  0  0  0  0  0  0  0
   -0.5460   -0.6584   -1.1044 H   0  0  0  0  0  0  0  0  0  0  0  0
    1.8491    0.0022    0.0104 Br  0  0  0  0  0  0  0  0  0  0  0  0
   -2.5233    0.9969   -0.3050 C   0  0  0  0  0  0  0  0  0  0  0  0
   -2.5973    0.8548   -1.3769 H   0  0  0  0  0  0  0  0  0  0  0  0
   -2.9447    2.1374   -0.0720 H   0  0  0  0  0  0  0  0  0  0  0  0
   -3.2507   -0.1611    0.2421 C   0  0  0  0  0  0  0  0  0  0  0  0
   -4.3194    0.0827    0.0197 H   0  0  0  0  0  0  0  0  0  0  0  0
   -3.3657    0.0385    1.2633 H   0  0  0  0  0  0  0  0  0  0  0  0
   -2.6804   -1.2349   -0.1050 O   0  0  0  0  0  1  0  0  0  0  0  0
  1  3  1  0  0  0  0
  2  1  1  0  0  0  0
  4  7  1  0  0  0  0
  4  1  1  0  0  0  0
  4  5  1  0  0  0  0
  6  4  1  0  0  0  0
  8 10  1  0  0  0  0
  8  1  1  0  0  0  0
  8 11  1  0  0  0  0
  9  8  1  0  0  0  0
 11 13  1  0  0  0  0
 12 11  1  0  0  0  0
 14 11  1  0  0  0  0
M  END
$$$$
Title Card Required
 OpenBabel07152211483D

 14 13  0  0  0  0  0  0  0  0999 V2000
   -1.1152    0.8885    0.2171 C   0  0  0  0  0  0  0  0  0  0  0  0
   -0.4116    1.5184   -0.3088 H   0  0  0  0  0  0  0  0  0  0  0  0
   -1.0894    0.9239    1.2588 H   0  0  0  0  0  0  0  0  0  0  0  0
   -0.3934   -0.3977   -0.0829 C   0  0  0  0  0  0  0  0  0  0  0  0
   -0.3058   -1.2683    0.4820 H   0  0  0  0  0  0  0  0  0  0  0  0
   -0.5156   -0.6177   -1.1411 H   0  0  0  0  0  0  0  0  0  0  0  0
    1.8504    0.0025    0.0098 Br  0  0  0  0  0  0  0  0  0  0  0  0
   -2.5111    0.9899   -0.3180 C   0  0  0  0  0  0  0  0  0  0  0  0
   -2.6071    0.9325   -1.4166 H   0  0  0  0  0  0  0  0  0  0  0  0
   -2.9824    2.1054   -0.0674 H   0  0  0  0  0  0  0  0  0  0  0  0
   -3.2475   -0.1579    0.2447 C   0  0  0  0  0  0  0  0  0  0  0  0
   -4.3727    0.0499    0.0137 H   0  0  0  0  0  0  0  0  0  0  0  0
   -3.4208    0.0392    1.3444 H   0  0  0  0  0  0  0  0  0  0  0  0
   -2.6882   -1.2369   -0.1043 O   0  0  0  0  0  1  0  0  0  0  0  0
  1  3  1  0  0  0  0
  2  1  1  0  0  0  0
  4  7  1  0  0  0  0
  4  1  1  0  0  0  0
  4  5  1  0  0  0  0
  6  4  1  0  0  0  0
  8 10  1  0  0  0  0
  8  1  1  0  0  0  0
  8 11  1  0  0  0  0
  9  8  1  0  0  0  0
 11 13  1  0  0  0  0
 12 11  1  0  0  0  0
 14 11  1  0  0  0  0
M  END
$$$$
Title Card Required
 OpenBabel07152211483D

 14 13  0  0  0  0  0  0  0  0999 V2000
   -1.1106    0.9005    0.2140 C   0  0  0  0  0  0  0  0  0  0  0  0
   -0.4894    1.5096   -0.2076 H   0  0  0  0  0  0  0  0  0  0  0  0
   -1.0531    0.9088    1.2477 H   0  0  0  0  0  0  0  0  0  0  0  0
   -0.3960   -0.3991   -0.0827 C   0  0  0  0  0  0  0  0  0  0  0  0
   -0.3070   -1.3536    0.5728 H   0  0  0  0  0  0  0  0  0  0  0  0
   -0.4806   -0.5868   -1.1785 H   0  0  0  0  0  0  0  0  0  0  0  0
    1.8515    0.0028    0.0092 Br  0  0  0  0  0  0  0  0  0  0  0  0
   -2.5015    0.9894   -0.3300 C   0  0  0  0  0  0  0  0  0  0  0  0
   -2.6069    1.0017   -1.4534 H   0  0  0  0  0  0  0  0  0  0  0  0
   -2.9975    2.0314   -0.0682 H   0  0  0  0  0  0  0  0  0  0  0  0
   -3.2496   -0.1526    0.2489 C   0  0  0  0  0  0  0  0  0  0  0  0
   -4.4192    0.0110   -0.0062 H   0  0  0  0  0  0  0  0  0  0  0  0
   -3.4597    0.0417    1.4367 H   0  0  0  0  0  0  0  0  0  0  0  0
   -2.6938   -1.2422   -0.1046 O   0  0  0  0  0  1  0  0  0  0  0  0
  1  3  1  0  0  0  0
  2  1  1  0  0  0  0
  4  7  1  0  0  0  0
  4  1  1  0  0  0  0
  4  5  1  0  0  0  0
  6  4  1  0  0  0  0
  8 10  1  0  0  0  0
  8  1  1  0  0  0  0
  8 11  1  0  0  0  0
  9  8  1  0  0  0  0
 11 13  1  0  0  0  0
 12 11  1  0  0  0  0
 14 11  1  0  0  0  0
M  END
$$$$
Title Card Required
 OpenBabel07152211483D

 14 13  0  0  0  0  0  0  0  0999 V2000
   -1.1106    0.9005    0.2140 C   0  0  0  0  0  0  0  0  0  0  0  0
   -0.4894    1.5096   -0.2076 H   0  0  0  0  0  0  0  0  0  0  0  0
   -1.0531    0.9088    1.2477 H   0  0  0  0  0  0  0  0  0  0  0  0
   -0.3960   -0.3991   -0.0827 C   0  0  0  0  0  0  0  0  0  0  0  0
   -0.3070   -1.3536    0.5728 H   0  0  0  0  0  0  0  0  0  0  0  0
   -0.4806   -0.5868   -1.1785 H   0  0  0  0  0  0  0  0  0  0  0  0
    1.8515    0.0028    0.0092 Br  0  0  0  0  0  0  0  0  0  0  0  0
   -2.5015    0.9894   -0.3300 C   0  0  0  0  0  0  0  0  0  0  0  0
   -2.6069    1.0017   -1.4534 H   0  0  0  0  0  0  0  0  0  0  0  0
   -2.9975    2.0314   -0.0682 H   0  0  0  0  0  0  0  0  0  0  0  0
   -3.2496   -0.1526    0.2489 C   0  0  0  0  0  0  0  0  0  0  0  0
   -4.4192    0.0110   -0.0062 H   0  0  0  0  0  0  0  0  0  0  0  0
   -3.4597    0.0417    1.4367 H   0  0  0  0  0  0  0  0  0  0  0  0
   -2.6938   -1.2422   -0.1046 O   0  0  0  0  0  1  0  0  0  0  0  0
  1  3  1  0  0  0  0
  2  1  1  0  0  0  0
  4  7  1  0  0  0  0
  4  1  1  0  0  0  0
  4  5  1  0  0  0  0
  6  4  1  0  0  0  0
  8 10  1  0  0  0  0
  8  1  1  0  0  0  0
  8 11  1  0  0  0  0
  9  8  1  0  0  0  0
 11 13  1  0  0  0  0
 12 11  1  0  0  0  0
 14 11  1  0  0  0  0
M  END
$$$$
Title Card Required
 OpenBabel07152211483D

 14 13  0  0  0  0  0  0  0  0999 V2000
   -1.1083    0.9059    0.2117 C   0  0  0  0  0  0  0  0  0  0  0  0
   -0.5011    1.5983   -0.1397 H   0  0  0  0  0  0  0  0  0  0  0  0
   -1.0203    0.9137    1.2878 H   0  0  0  0  0  0  0  0  0  0  0  0
   -0.3991   -0.4047   -0.0844 C   0  0  0  0  0  0  0  0  0  0  0  0
   -0.3213   -1.4087    0.6534 H   0  0  0  0  0  0  0  0  0  0  0  0
   -0.4335   -0.5624   -1.2035 H   0  0  0  0  0  0  0  0  0  0  0  0
    1.8526    0.0031    0.0085 Br  0  0  0  0  0  0  0  0  0  0  0  0
   -2.4932    0.9944   -0.3440 C   0  0  0  0  0  0  0  0  0  0  0  0
   -2.5939    1.0699   -1.4801 H   0  0  0  0  0  0  0  0  0  0  0  0
   -2.9955    1.9186   -0.0693 H   0  0  0  0  0  0  0  0  0  0  0  0
   -3.2586   -0.1453    0.2564 C   0  0  0  0  0  0  0  0  0  0  0  0
   -4.4492   -0.0391   -0.0371 H   0  0  0  0  0  0  0  0  0  0  0  0
   -3.4841    0.0442    1.5202 H   0  0  0  0  0  0  0  0  0  0  0  0
   -2.6990   -1.2512   -0.1054 O   0  0  0  0  0  1  0  0  0  0  0  0
  1  3  1  0  0  0  0
  2  1  1  0  0  0  0
  4  7  1  0  0  0  0
  4  1  1  0  0  0  0
  4  5  1  0  0  0  0
  6  4  1  0  0  0  0
  8 10  1  0  0  0  0
  8  1  1  0  0  0  0
  8 11  1  0  0  0  0
  9  8  1  0  0  0  0
 11 13  1  0  0  0  0
 12 11  1  0  0  0  0
 14 11  1  0  0  0  0
M  END
$$$$
Title Card Required
 OpenBabel07152211483D

 14 13  0  0  0  0  0  0  0  0999 V2000
   -1.1074    0.9039    0.2128 C   0  0  0  0  0  0  0  0  0  0  0  0
   -0.4456    1.7692   -0.1135 H   0  0  0  0  0  0  0  0  0  0  0  0
   -1.0053    0.9363    1.3479 H   0  0  0  0  0  0  0  0  0  0  0  0
   -0.4017   -0.4156   -0.0868 C   0  0  0  0  0  0  0  0  0  0  0  0
   -0.3505   -1.3904    0.6818 H   0  0  0  0  0  0  0  0  0  0  0  0
   -0.3825   -0.5533   -1.1989 H   0  0  0  0  0  0  0  0  0  0  0  0
    1.8534    0.0035    0.0079 Br  0  0  0  0  0  0  0  0  0  0  0  0
   -2.4872    1.0017   -0.3585 C   0  0  0  0  0  0  0  0  0  0  0  0
   -2.5678    1.1189   -1.4835 H   0  0  0  0  0  0  0  0  0  0  0  0
   -2.9919    1.8287   -0.0571 H   0  0  0  0  0  0  0  0  0  0  0  0
   -3.2736   -0.1391    0.2658 C   0  0  0  0  0  0  0  0  0  0  0  0
   -4.4438   -0.0885   -0.0677 H   0  0  0  0  0  0  0  0  0  0  0  0
   -3.4857    0.0470    1.5577 H   0  0  0  0  0  0  0  0  0  0  0  0
   -2.7032   -1.2618   -0.1057 O   0  0  0  0  0  1  0  0  0  0  0  0
  1  3  1  0  0  0  0
  2  1  1  0  0  0  0
  4  7  1  0  0  0  0
  4  1  1  0  0  0  0
  4  5  1  0  0  0  0
  6  4  1  0  0  0  0
  8 10  1  0  0  0  0
  8  1  1  0  0  0  0
  8 11  1  0  0  0  0
  9  8  1  0  0  0  0
 11 13  1  0  0  0  0
 12 11  1  0  0  0  0
 14 11  1  0  0  0  0
M  END
$$$$
Title Card Required
 OpenBabel07152211483D

 14 13  0  0  0  0  0  0  0  0999 V2000
   -1.1011    0.9027    0.2171 C   0  0  0  0  0  0  0  0  0  0  0  0
   -0.4004    1.9252   -0.0855 H   0  0  0  0  0  0  0  0  0  0  0  0
   -1.0137    0.9711    1.3878 H   0  0  0  0  0  0  0  0  0  0  0  0
   -0.4037   -0.4308   -0.0894 C   0  0  0  0  0  0  0  0  0  0  0  0
   -0.3930   -1.2987    0.6529 H   0  0  0  0  0  0  0  0  0  0  0  0
   -0.3303   -0.5639   -1.1683 H   0  0  0  0  0  0  0  0  0  0  0  0
    1.8542    0.0038    0.0072 Br  0  0  0  0  0  0  0  0  0  0  0  0
   -2.4817    1.0067   -0.3737 C   0  0  0  0  0  0  0  0  0  0  0  0
   -2.5298    1.1457   -1.4683 H   0  0  0  0  0  0  0  0  0  0  0  0
   -3.0136    1.8188   -0.0129 H   0  0  0  0  0  0  0  0  0  0  0  0
   -3.2937   -0.1357    0.2756 C   0  0  0  0  0  0  0  0  0  0  0  0
   -4.4026   -0.1321   -0.0927 H   0  0  0  0  0  0  0  0  0  0  0  0
   -3.4654    0.0516    1.5383 H   0  0  0  0  0  0  0  0  0  0  0  0
   -2.7069   -1.2732   -0.1050 O   0  0  0  0  0  1  0  0  0  0  0  0
  1  3  1  0  0  0  0
  2  1  1  0  0  0  0
  4  7  1  0  0  0  0
  4  1  1  0  0  0  0
  4  5  1  0  0  0  0
  6  4  1  0  0  0  0
  8 10  1  0  0  0  0
  8  1  1  0  0  0  0
  8 11  1  0  0  0  0
  9  8  1  0  0  0  0
 11 13  1  0  0  0  0
 12 11  1  0  0  0  0
 14 11  1  0  0  0  0
M  END
$$$$
Title Card Required
 OpenBabel07152211483D

 14 13  0  0  0  0  0  0  0  0999 V2000
   -1.0882    0.9064    0.2241 C   0  0  0  0  0  0  0  0  0  0  0  0
   -0.3996    2.0020   -0.0462 H   0  0  0  0  0  0  0  0  0  0  0  0
   -1.0437    1.0079    1.3861 H   0  0  0  0  0  0  0  0  0  0  0  0
   -0.4055   -0.4446   -0.0919 C   0  0  0  0  0  0  0  0  0  0  0  0
   -0.4403   -1.1823    0.5978 H   0  0  0  0  0  0  0  0  0  0  0  0
   -0.2849   -0.5952   -1.1348 H   0  0  0  0  0  0  0  0  0  0  0  0
    1.8548    0.0042    0.0066 Br  0  0  0  0  0  0  0  0  0  0  0  0
   -2.4779    1.0101   -0.3856 C   0  0  0  0  0  0  0  0  0  0  0  0
   -2.4884    1.1506   -1.4527 H   0  0  0  0  0  0  0  0  0  0  0  0
   -3.0473    1.8745    0.0499 H   0  0  0  0  0  0  0  0  0  0  0  0
   -3.3144   -0.1362    0.2837 C   0  0  0  0  0  0  0  0  0  0  0  0
   -4.3466   -0.1612   -0.1095 H   0  0  0  0  0  0  0  0  0  0  0  0
   -3.4299    0.0584    1.4671 H   0  0  0  0  0  0  0  0  0  0  0  0
   -2.7099   -1.2843   -0.1029 O   0  0  0  0  0  1  0  0  0  0  0  0
  1  3  1  0  0  0  0
  2  1  1  0  0  0  0
  4  7  1  0  0  0  0
  4  1  1  0  0  0  0
  4  5  1  0  0  0  0
  6  4  1  0  0  0  0
  8 10  1  0  0  0  0
  8  1  1  0  0  0  0
  8 11  1  0  0  0  0
  9  8  1  0  0  0  0
 11 13  1  0  0  0  0
 12 11  1  0  0  0  0
 14 11  1  0  0  0  0
M  END
$$$$
Title Card Required
 OpenBabel07152211483D

 14 13  0  0  0  0  0  0  0  0999 V2000
   -1.0685    0.9160    0.2345 C   0  0  0  0  0  0  0  0  0  0  0  0
   -0.4403    1.9959    0.0014 H   0  0  0  0  0  0  0  0  0  0  0  0
   -1.0954    1.0433    1.3431 H   0  0  0  0  0  0  0  0  0  0  0  0
   -0.4073   -0.4500   -0.0988 C   0  0  0  0  0  0  0  0  0  0  0  0
   -0.4969   -1.1199    0.5898 H   0  0  0  0  0  0  0  0  0  0  0  0
   -0.2440   -0.6539   -1.1191 H   0  0  0  0  0  0  0  0  0  0  0  0
    1.8554    0.0045    0.0060 Br  0  0  0  0  0  0  0  0  0  0  0  0
   -2.4778    1.0159   -0.3905 C   0  0  0  0  0  0  0  0  0  0  0  0
   -2.4444    1.1381   -1.4558 H   0  0  0  0  0  0  0  0  0  0  0  0
   -3.0630    1.9525    0.1087 H   0  0  0  0  0  0  0  0  0  0  0  0
   -3.3340   -0.1405    0.2893 C   0  0  0  0  0  0  0  0  0  0  0  0
   -4.3051   -0.1749   -0.1278 H   0  0  0  0  0  0  0  0  0  0  0  0
   -3.3813    0.0704    1.3542 H   0  0  0  0  0  0  0  0  0  0  0  0
   -2.7122   -1.2965   -0.0991 O   0  0  0  0  0  1  0  0  0  0  0  0
  1  3  1  0  0  0  0
  2  1  1  0  0  0  0
  4  7  1  0  0  0  0
  4  1  1  0  0  0  0
  4  5  1  0  0  0  0
  6  4  1  0  0  0  0
  8 10  1  0  0  0  0
  8  1  1  0  0  0  0
  8 11  1  0  0  0  0
  9  8  1  0  0  0  0
 11 13  1  0  0  0  0
 12 11  1  0  0  0  0
 14 11  1  0  0  0  0
M  END
$$$$
Title Card Required
 OpenBabel07152211483D

 14 13  0  0  0  0  0  0  0  0999 V2000
   -1.0482    0.9287    0.2440 C   0  0  0  0  0  0  0  0  0  0  0  0
   -0.5006    1.9181    0.0388 H   0  0  0  0  0  0  0  0  0  0  0  0
   -1.1532    1.0649    1.2941 H   0  0  0  0  0  0  0  0  0  0  0  0
   -0.4086   -0.4425   -0.1103 C   0  0  0  0  0  0  0  0  0  0  0  0
   -0.5548   -1.1613    0.6673 H   0  0  0  0  0  0  0  0  0  0  0  0
   -0.2178   -0.7258   -1.1298 H   0  0  0  0  0  0  0  0  0  0  0  0
    1.8559    0.0048    0.0055 Br  0  0  0  0  0  0  0  0  0  0  0  0
   -2.4821    1.0250   -0.3859 C   0  0  0  0  0  0  0  0  0  0  0  0
   -2.4105    1.1153   -1.4788 H   0  0  0  0  0  0  0  0  0  0  0  0
   -3.0408    2.0054    0.1312 H   0  0  0  0  0  0  0  0  0  0  0  0
   -3.3451   -0.1475    0.2875 C   0  0  0  0  0  0  0  0  0  0  0  0
   -4.3163   -0.1704   -0.1530 H   0  0  0  0  0  0  0  0  0  0  0  0
   -3.3373    0.0920    1.2766 H   0  0  0  0  0  0  0  0  0  0  0  0
   -2.7134   -1.3074   -0.0944 O   0  0  0  0  0  1  0  0  0  0  0  0
  1  3  1  0  0  0  0
  2  1  1  0  0  0  0
  4  7  1  0  0  0  0
  4  1  1  0  0  0  0
  4  5  1  0  0  0  0
  6  4  1  0  0  0  0
  8 10  1  0  0  0  0
  8  1  1  0  0  0  0
  8 11  1  0  0  0  0
  9  8  1  0  0  0  0
 11 13  1  0  0  0  0
 12 11  1  0  0  0  0
 14 11  1  0  0  0  0
M  END
$$$$
Title Card Required
 OpenBabel07152211483D

 14 13  0  0  0  0  0  0  0  0999 V2000
   -1.0300    0.9414    0.2502 C   0  0  0  0  0  0  0  0  0  0  0  0
   -0.5542    1.8142    0.0577 H   0  0  0  0  0  0  0  0  0  0  0  0
   -1.2144    1.0731    1.2753 H   0  0  0  0  0  0  0  0  0  0  0  0
   -0.4098   -0.4303   -0.1207 C   0  0  0  0  0  0  0  0  0  0  0  0
   -0.6071   -1.2243    0.7507 H   0  0  0  0  0  0  0  0  0  0  0  0
   -0.2075   -0.8024   -1.1476 H   0  0  0  0  0  0  0  0  0  0  0  0
    1.8563    0.0051    0.0051 Br  0  0  0  0  0  0  0  0  0  0  0  0
   -2.4892    1.0372   -0.3746 C   0  0  0  0  0  0  0  0  0  0  0  0
   -2.3871    1.0862   -1.5016 H   0  0  0  0  0  0  0  0  0  0  0  0
   -2.9866    2.0287    0.1177 H   0  0  0  0  0  0  0  0  0  0  0  0
   -3.3491   -0.1573    0.2751 C   0  0  0  0  0  0  0  0  0  0  0  0
   -4.3663   -0.1513   -0.1804 H   0  0  0  0  0  0  0  0  0  0  0  0
   -3.3013    0.1299    1.2781 H   0  0  0  0  0  0  0  0  0  0  0  0
   -2.7139   -1.3176   -0.0887 O   0  0  0  0  0  1  0  0  0  0  0  0
  1  3  1  0  0  0  0
  2  1  1  0  0  0  0
  4  7  1  0  0  0  0
  4  1  1  0  0  0  0
  4  5  1  0  0  0  0
  6  4  1  0  0  0  0
  8 10  1  0  0  0  0
  8  1  1  0  0  0  0
  8 11  1  0  0  0  0
  9  8  1  0  0  0  0
 11 13  1  0  0  0  0
 12 11  1  0  0  0  0
 14 11  1  0  0  0  0
M  END
$$$$
Title Card Required
 OpenBabel07152211483D

 14 13  0  0  0  0  0  0  0  0999 V2000
   -1.0167    0.9480    0.2537 C   0  0  0  0  0  0  0  0  0  0  0  0
   -0.5550    1.7626    0.0387 H   0  0  0  0  0  0  0  0  0  0  0  0
   -1.2821    1.0655    1.3032 H   0  0  0  0  0  0  0  0  0  0  0  0
   -0.4111   -0.4184   -0.1268 C   0  0  0  0  0  0  0  0  0  0  0  0
   -0.6470   -1.2526    0.7824 H   0  0  0  0  0  0  0  0  0  0  0  0
   -0.2189   -0.8785   -1.1500 H   0  0  0  0  0  0  0  0  0  0  0  0
    1.8567    0.0053    0.0048 Br  0  0  0  0  0  0  0  0  0  0  0  0
   -2.4988    1.0534   -0.3584 C   0  0  0  0  0  0  0  0  0  0  0  0
   -2.3753    1.0503   -1.5043 H   0  0  0  0  0  0  0  0  0  0  0  0
   -2.9016    2.0242    0.0667 H   0  0  0  0  0  0  0  0  0  0  0  0
   -3.3480   -0.1706    0.2511 C   0  0  0  0  0  0  0  0  0  0  0  0
   -4.4315   -0.1168   -0.1983 H   0  0  0  0  0  0  0  0  0  0  0  0
   -3.2753    0.1809    1.3440 H   0  0  0  0  0  0  0  0  0  0  0  0
   -2.7145   -1.3277   -0.0813 O   0  0  0  0  0  1  0  0  0  0  0  0
  1  3  1  0  0  0  0
  2  1  1  0  0  0  0
  4  7  1  0  0  0  0
  4  1  1  0  0  0  0
  4  5  1  0  0  0  0
  6  4  1  0  0  0  0
  8 10  1  0  0  0  0
  8 11  1  0  0  0  0
  8  1  1  0  0  0  0
  9  8  1  0  0  0  0
 11 13  1  0  0  0  0
 12 11  1  0  0  0  0
 14 11  1  0  0  0  0
M  END
$$$$
Title Card Required
 OpenBabel07152211483D

 14 13  0  0  0  0  0  0  0  0999 V2000
   -1.0144    0.9436    0.2565 C   0  0  0  0  0  0  0  0  0  0  0  0
   -0.4761    1.8226   -0.0231 H   0  0  0  0  0  0  0  0  0  0  0  0
   -1.3308    1.0421    1.3480 H   0  0  0  0  0  0  0  0  0  0  0  0
   -0.4121   -0.4110   -0.1268 C   0  0  0  0  0  0  0  0  0  0  0  0
   -0.6613   -1.2261    0.7426 H   0  0  0  0  0  0  0  0  0  0  0  0
   -0.2527   -0.9271   -1.1238 H   0  0  0  0  0  0  0  0  0  0  0  0
    1.8569    0.0056    0.0045 Br  0  0  0  0  0  0  0  0  0  0  0  0
   -2.5067    1.0683   -0.3431 C   0  0  0  0  0  0  0  0  0  0  0  0
   -2.3788    1.0177   -1.4770 H   0  0  0  0  0  0  0  0  0  0  0  0
   -2.8192    2.0130    0.0002 H   0  0  0  0  0  0  0  0  0  0  0  0
   -3.3435   -0.1832    0.2244 C   0  0  0  0  0  0  0  0  0  0  0  0
   -4.4720   -0.0781   -0.1930 H   0  0  0  0  0  0  0  0  0  0  0  0
   -3.2709    0.2160    1.4057 H   0  0  0  0  0  0  0  0  0  0  0  0
   -2.7158   -1.3355   -0.0733 O   0  0  0  0  0  1  0  0  0  0  0  0
  1  3  1  0  0  0  0
  2  1  1  0  0  0  0
  4  7  1  0  0  0  0
  4  1  1  0  0  0  0
  4  5  1  0  0  0  0
  6  4  1  0  0  0  0
  8 10  1  0  0  0  0
  8 11  1  0  0  0  0
  8  1  1  0  0  0  0
  9  8  1  0  0  0  0
 11 13  1  0  0  0  0
 12 11  1  0  0  0  0
 14 11  1  0  0  0  0
M  END
$$$$
Title Card Required
 OpenBabel07152211483D

 14 13  0  0  0  0  0  0  0  0999 V2000
   -1.0184    0.9363    0.2593 C   0  0  0  0  0  0  0  0  0  0  0  0
   -0.3762    1.9021   -0.0945 H   0  0  0  0  0  0  0  0  0  0  0  0
   -1.3502    1.0069    1.3770 H   0  0  0  0  0  0  0  0  0  0  0  0
   -0.4124   -0.4074   -0.1221 C   0  0  0  0  0  0  0  0  0  0  0  0
   -0.6533   -1.1602    0.6539 H   0  0  0  0  0  0  0  0  0  0  0  0
   -0.3048   -0.9479   -1.0770 H   0  0  0  0  0  0  0  0  0  0  0  0
    1.8570    0.0057    0.0043 Br  0  0  0  0  0  0  0  0  0  0  0  0
   -2.5112    1.0781   -0.3305 C   0  0  0  0  0  0  0  0  0  0  0  0
   -2.3939    0.9894   -1.4294 H   0  0  0  0  0  0  0  0  0  0  0  0
   -2.7595    2.0373   -0.0607 H   0  0  0  0  0  0  0  0  0  0  0  0
   -3.3369   -0.1939    0.1981 C   0  0  0  0  0  0  0  0  0  0  0  0
   -4.4781   -0.0416   -0.1664 H   0  0  0  0  0  0  0  0  0  0  0  0
   -3.2875    0.2263    1.4341 H   0  0  0  0  0  0  0  0  0  0  0  0
   -2.7181   -1.3412   -0.0649 O   0  0  0  0  0  1  0  0  0  0  0  0
  1  3  1  0  0  0  0
  2  1  1  0  0  0  0
  4  7  1  0  0  0  0
  4  1  1  0  0  0  0
  4  5  1  0  0  0  0
  6  4  1  0  0  0  0
  8 10  1  0  0  0  0
  8 11  1  0  0  0  0
  8  1  1  0  0  0  0
  9  8  1  0  0  0  0
 11 13  1  0  0  0  0
 12 11  1  0  0  0  0
 14 11  1  0  0  0  0
M  END
$$$$
Title Card Required
 OpenBabel07152211483D

 14 13  0  0  0  0  0  0  0  0999 V2000
   -1.0253    0.9321    0.2608 C   0  0  0  0  0  0  0  0  0  0  0  0
   -0.3026    1.9302   -0.1483 H   0  0  0  0  0  0  0  0  0  0  0  0
   -1.3329    0.9623    1.3774 H   0  0  0  0  0  0  0  0  0  0  0  0
   -0.4113   -0.4037   -0.1144 C   0  0  0  0  0  0  0  0  0  0  0  0
   -0.6315   -1.0882    0.5572 H   0  0  0  0  0  0  0  0  0  0  0  0
   -0.3737   -0.9456   -1.0286 H   0  0  0  0  0  0  0  0  0  0  0  0
    1.8568    0.0058    0.0041 Br  0  0  0  0  0  0  0  0  0  0  0  0
   -2.5114    1.0811   -0.3194 C   0  0  0  0  0  0  0  0  0  0  0  0
   -2.4173    0.9633   -1.3797 H   0  0  0  0  0  0  0  0  0  0  0  0
   -2.7297    2.1196   -0.1095 H   0  0  0  0  0  0  0  0  0  0  0  0
   -3.3284   -0.2022    0.1725 C   0  0  0  0  0  0  0  0  0  0  0  0
   -4.4474   -0.0112   -0.1226 H   0  0  0  0  0  0  0  0  0  0  0  0
   -3.3246    0.2086    1.4241 H   0  0  0  0  0  0  0  0  0  0  0  0
   -2.7219   -1.3451   -0.0556 O   0  0  0  0  0  1  0  0  0  0  0  0
  1  3  1  0  0  0  0
  2  1  1  0  0  0  0
  4  7  1  0  0  0  0
  4  1  1  0  0  0  0
  4  5  1  0  0  0  0
  6  4  1  0  0  0  0
  8 10  1  0  0  0  0
  8 11  1  0  0  0  0
  8  1  1  0  0  0  0
  9  8  1  0  0  0  0
 11 13  1  0  0  0  0
 12 11  1  0  0  0  0
 14 11  1  0  0  0  0
M  END
$$$$
Title Card Required
 OpenBabel07152211483D

 14 13  0  0  0  0  0  0  0  0999 V2000
   -1.0340    0.9331    0.2595 C   0  0  0  0  0  0  0  0  0  0  0  0
   -0.2848    1.8732   -0.1648 H   0  0  0  0  0  0  0  0  0  0  0  0
   -1.2693    0.9132    1.3471 H   0  0  0  0  0  0  0  0  0  0  0  0
   -0.4061   -0.3908   -0.1088 C   0  0  0  0  0  0  0  0  0  0  0  0
   -0.6174   -1.1004    0.5530 H   0  0  0  0  0  0  0  0  0  0  0  0
   -0.4593   -0.9266   -1.0149 H   0  0  0  0  0  0  0  0  0  0  0  0
    1.8562    0.0056    0.0039 Br  0  0  0  0  0  0  0  0  0  0  0  0
   -2.5068    1.0801   -0.3075 C   0  0  0  0  0  0  0  0  0  0  0  0
   -2.4441    0.9371   -1.3610 H   0  0  0  0  0  0  0  0  0  0  0  0
   -2.7270    2.2234   -0.1537 H   0  0  0  0  0  0  0  0  0  0  0  0
   -3.3179   -0.2063    0.1500 C   0  0  0  0  0  0  0  0  0  0  0  0
   -4.3849    0.0074   -0.0713 H   0  0  0  0  0  0  0  0  0  0  0  0
   -3.3826    0.1566    1.3677 H   0  0  0  0  0  0  0  0  0  0  0  0
   -2.7272   -1.3476   -0.0458 O   0  0  0  0  0  1  0  0  0  0  0  0
  1  3  1  0  0  0  0
  2  1  1  0  0  0  0
  4  7  1  0  0  0  0
  4  1  1  0  0  0  0
  4  5  1  0  0  0  0
  6  4  1  0  0  0  0
  8 10  1  0  0  0  0
  8 11  1  0  0  0  0
  8  1  1  0  0  0  0
  9  8  1  0  0  0  0
 11 13  1  0  0  0  0
 12 11  1  0  0  0  0
 14 11  1  0  0  0  0
M  END
$$$$
Title Card Required
 OpenBabel07152211483D

 14 13  0  0  0  0  0  0  0  0999 V2000
   -1.0407    0.9375    0.2549 C   0  0  0  0  0  0  0  0  0  0  0  0
   -0.3218    1.7681   -0.1425 H   0  0  0  0  0  0  0  0  0  0  0  0
   -1.1912    0.8816    1.3177 H   0  0  0  0  0  0  0  0  0  0  0  0
   -0.3992   -0.3740   -0.1061 C   0  0  0  0  0  0  0  0  0  0  0  0
   -0.6110   -1.1804    0.6310 H   0  0  0  0  0  0  0  0  0  0  0  0
   -0.5321   -0.9018   -1.0456 H   0  0  0  0  0  0  0  0  0  0  0  0
    1.8554    0.0054    0.0038 Br  0  0  0  0  0  0  0  0  0  0  0  0
   -2.4997    1.0800   -0.2977 C   0  0  0  0  0  0  0  0  0  0  0  0
   -2.4617    0.9190   -1.3822 H   0  0  0  0  0  0  0  0  0  0  0  0
   -2.7393    2.2655   -0.1867 H   0  0  0  0  0  0  0  0  0  0  0  0
   -3.3083   -0.2049    0.1389 C   0  0  0  0  0  0  0  0  0  0  0  0
   -4.3415    0.0111   -0.0461 H   0  0  0  0  0  0  0  0  0  0  0  0
   -3.4354    0.0938    1.2945 H   0  0  0  0  0  0  0  0  0  0  0  0
   -2.7318   -1.3491   -0.0389 O   0  0  0  0  0  1  0  0  0  0  0  0
  1  3  1  0  0  0  0
  2  1  1  0  0  0  0
  4  7  1  0  0  0  0
  4  1  1  0  0  0  0
  4  5  1  0  0  0  0
  6  4  1  0  0  0  0
  8 10  1  0  0  0  0
  8 11  1  0  0  0  0
  8  1  1  0  0  0  0
  9  8  1  0  0  0  0
 11 13  1  0  0  0  0
 12 11  1  0  0  0  0
 14 11  1  0  0  0  0
M  END
$$$$
Title Card Required
 OpenBabel07152211483D

 14 13  0  0  0  0  0  0  0  0999 V2000
   -1.0470    0.9426    0.2474 C   0  0  0  0  0  0  0  0  0  0  0  0
   -0.3830    1.6495   -0.1019 H   0  0  0  0  0  0  0  0  0  0  0  0
   -1.1057    0.8646    1.3083 H   0  0  0  0  0  0  0  0  0  0  0  0
   -0.3920   -0.3596   -0.1018 C   0  0  0  0  0  0  0  0  0  0  0  0
   -0.5925   -1.2495    0.7082 H   0  0  0  0  0  0  0  0  0  0  0  0
   -0.5982   -0.8643   -1.0895 H   0  0  0  0  0  0  0  0  0  0  0  0
    1.8543    0.0051    0.0036 Br  0  0  0  0  0  0  0  0  0  0  0  0
   -2.4907    1.0816   -0.2903 C   0  0  0  0  0  0  0  0  0  0  0  0
   -2.4722    0.9081   -1.4145 H   0  0  0  0  0  0  0  0  0  0  0  0
   -2.7593    2.2513   -0.2132 H   0  0  0  0  0  0  0  0  0  0  0  0
   -3.2980   -0.1995    0.1353 C   0  0  0  0  0  0  0  0  0  0  0  0
   -4.3337    0.0088   -0.0524 H   0  0  0  0  0  0  0  0  0  0  0  0
   -3.4826    0.0260    1.2205 H   0  0  0  0  0  0  0  0  0  0  0  0
   -2.7357   -1.3507   -0.0338 O   0  0  0  0  0  1  0  0  0  0  0  0
  1  3  1  0  0  0  0
  2  1  1  0  0  0  0
  4  7  1  0  0  0  0
  4  1  1  0  0  0  0
  4  5  1  0  0  0  0
  6  4  1  0  0  0  0
  8 10  1  0  0  0  0
  8 11  1  0  0  0  0
  8  1  1  0  0  0  0
  9  8  1  0  0  0  0
 11 13  1  0  0  0  0
 12 11  1  0  0  0  0
 14 11  1  0  0  0  0
M  END
$$$$
Title Card Required
 OpenBabel07152211483D

 14 13  0  0  0  0  0  0  0  0999 V2000
   -1.0582    0.9430    0.2381 C   0  0  0  0  0  0  0  0  0  0  0  0
   -0.4167    1.5748   -0.0714 H   0  0  0  0  0  0  0  0  0  0  0  0
   -1.0038    0.8649    1.3290 H   0  0  0  0  0  0  0  0  0  0  0  0
   -0.3846   -0.3511   -0.0941 C   0  0  0  0  0  0  0  0  0  0  0  0
   -0.5479   -1.2685    0.7466 H   0  0  0  0  0  0  0  0  0  0  0  0
   -0.6612   -0.7967   -1.1240 H   0  0  0  0  0  0  0  0  0  0  0  0
    1.8526    0.0046    0.0034 Br  0  0  0  0  0  0  0  0  0  0  0  0
   -2.4782    1.0849   -0.2870 C   0  0  0  0  0  0  0  0  0  0  0  0
   -2.4735    0.9070   -1.4372 H   0  0  0  0  0  0  0  0  0  0  0  0
   -2.7912    2.1744   -0.2330 H   0  0  0  0  0  0  0  0  0  0  0  0
   -3.2858   -0.1892    0.1381 C   0  0  0  0  0  0  0  0  0  0  0  0
   -4.3680    0.0016   -0.1073 H   0  0  0  0  0  0  0  0  0  0  0  0
   -3.5301   -0.0472    1.1677 H   0  0  0  0  0  0  0  0  0  0  0  0
   -2.7390   -1.3536   -0.0301 O   0  0  0  0  0  1  0  0  0  0  0  0
  1  3  1  0  0  0  0
  2  1  1  0  0  0  0
  4  7  1  0  0  0  0
  4  1  1  0  0  0  0
  4  5  1  0  0  0  0
  6  4  1  0  0  0  0
  8 10  1  0  0  0  0
  8 11  1  0  0  0  0
  8  1  1  0  0  0  0
  9  8  1  0  0  0  0
 11 13  1  0  0  0  0
 12 11  1  0  0  0  0
 14 11  1  0  0  0  0
M  END
$$$$
Title Card Required
 OpenBabel07152211483D

 14 13  0  0  0  0  0  0  0  0999 V2000
   -1.0745    0.9337    0.2347 C   0  0  0  0  0  0  0  0  0  0  0  0
   -0.3540    1.6291   -0.0937 H   0  0  0  0  0  0  0  0  0  0  0  0
   -0.9221    0.8869    1.3579 H   0  0  0  0  0  0  0  0  0  0  0  0
   -0.3796   -0.3524   -0.0859 C   0  0  0  0  0  0  0  0  0  0  0  0
   -0.4905   -1.2216    0.7218 H   0  0  0  0  0  0  0  0  0  0  0  0
   -0.6955   -0.7189   -1.1226 H   0  0  0  0  0  0  0  0  0  0  0  0
    1.8508    0.0041    0.0031 Br  0  0  0  0  0  0  0  0  0  0  0  0
   -2.4660    1.0866   -0.2897 C   0  0  0  0  0  0  0  0  0  0  0  0
   -2.4624    0.9160   -1.4300 H   0  0  0  0  0  0  0  0  0  0  0  0
   -2.8310    2.0805   -0.2351 H   0  0  0  0  0  0  0  0  0  0  0  0
   -3.2773   -0.1774    0.1436 C   0  0  0  0  0  0  0  0  0  0  0  0
   -4.4098   -0.0085   -0.1956 H   0  0  0  0  0  0  0  0  0  0  0  0
   -3.5686   -0.0944    1.1808 H   0  0  0  0  0  0  0  0  0  0  0  0
   -2.7405   -1.3570   -0.0290 O   0  0  0  0  0  1  0  0  0  0  0  0
  1  3  1  0  0  0  0
  2  1  1  0  0  0  0
  4  7  1  0  0  0  0
  4  1  1  0  0  0  0
  4  5  1  0  0  0  0
  6  4  1  0  0  0  0
  8 10  1  0  0  0  0
  8 11  1  0  0  0  0
  8  1  1  0  0  0  0
  9  8  1  0  0  0  0
 11 13  1  0  0  0  0
 12 11  1  0  0  0  0
 14 11  1  0  0  0  0
M  END
$$$$
Title Card Required
 OpenBabel07152211483D

 14 13  0  0  0  0  0  0  0  0999 V2000
   -1.0878    0.9226    0.2359 C   0  0  0  0  0  0  0  0  0  0  0  0
   -0.2762    1.7223   -0.1318 H   0  0  0  0  0  0  0  0  0  0  0  0
   -0.8674    0.9251    1.3719 H   0  0  0  0  0  0  0  0  0  0  0  0
   -0.3765   -0.3589   -0.0788 C   0  0  0  0  0  0  0  0  0  0  0  0
   -0.4308   -1.1436    0.6622 H   0  0  0  0  0  0  0  0  0  0  0  0
   -0.7040   -0.6458   -1.0983 H   0  0  0  0  0  0  0  0  0  0  0  0
    1.8488    0.0036    0.0028 Br  0  0  0  0  0  0  0  0  0  0  0  0
   -2.4547    1.0835   -0.2963 C   0  0  0  0  0  0  0  0  0  0  0  0
   -2.4416    0.9294   -1.4039 H   0  0  0  0  0  0  0  0  0  0  0  0
   -2.8849    2.0179   -0.2194 H   0  0  0  0  0  0  0  0  0  0  0  0
   -3.2739   -0.1663    0.1501 C   0  0  0  0  0  0  0  0  0  0  0  0
   -4.4295   -0.0196   -0.2932 H   0  0  0  0  0  0  0  0  0  0  0  0
   -3.6006   -0.1162    1.2320 H   0  0  0  0  0  0  0  0  0  0  0  0
   -2.7404   -1.3600   -0.0297 O   0  0  0  0  0  1  0  0  0  0  0  0
  1  3  1  0  0  0  0
  2  1  1  0  0  0  0
  4  7  1  0  0  0  0
  4  1  1  0  0  0  0
  4  5  1  0  0  0  0
  6  4  1  0  0  0  0
  8 10  1  0  0  0  0
  8 11  1  0  0  0  0
  8  1  1  0  0  0  0
  9  8  1  0  0  0  0
 11 13  1  0  0  0  0
 12 11  1  0  0  0  0
 14 11  1  0  0  0  0
M  END
$$$$
Title Card Required
 OpenBabel07152211483D

 14 13  0  0  0  0  0  0  0  0999 V2000
   -1.0933    0.9140    0.2409 C   0  0  0  0  0  0  0  0  0  0  0  0
   -0.2357    1.7991   -0.1624 H   0  0  0  0  0  0  0  0  0  0  0  0
   -0.8363    0.9831    1.3649 H   0  0  0  0  0  0  0  0  0  0  0  0
   -0.3743   -0.3661   -0.0738 C   0  0  0  0  0  0  0  0  0  0  0  0
   -0.3641   -1.0697    0.6005 H   0  0  0  0  0  0  0  0  0  0  0  0
   -0.6925   -0.5785   -1.0666 H   0  0  0  0  0  0  0  0  0  0  0  0
    1.8464    0.0030    0.0025 Br  0  0  0  0  0  0  0  0  0  0  0  0
   -2.4427    1.0738   -0.3061 C   0  0  0  0  0  0  0  0  0  0  0  0
   -2.4093    0.9448   -1.3722 H   0  0  0  0  0  0  0  0  0  0  0  0
   -2.9661    1.9978   -0.1825 H   0  0  0  0  0  0  0  0  0  0  0  0
   -3.2755   -0.1558    0.1589 C   0  0  0  0  0  0  0  0  0  0  0  0
   -4.4157   -0.0309   -0.4001 H   0  0  0  0  0  0  0  0  0  0  0  0
   -3.6287   -0.1168    1.2946 H   0  0  0  0  0  0  0  0  0  0  0  0
   -2.7391   -1.3622   -0.0320 O   0  0  0  0  0  1  0  0  0  0  0  0
  1  3  1  0  0  0  0
  2  1  1  0  0  0  0
  4  7  1  0  0  0  0
  4  1  1  0  0  0  0
  4  5  1  0  0  0  0
  6  4  1  0  0  0  0
  8 10  1  0  0  0  0
  8 11  1  0  0  0  0
  8  1  1  0  0  0  0
  9  8  1  0  0  0  0
 11 13  1  0  0  0  0
 12 11  1  0  0  0  0
 14 11  1  0  0  0  0
M  END
$$$$
Title Card Required
 OpenBabel07152211483D

 14 13  0  0  0  0  0  0  0  0999 V2000
   -1.0857    0.9115    0.2506 C   0  0  0  0  0  0  0  0  0  0  0  0
   -0.2652    1.8269   -0.1751 H   0  0  0  0  0  0  0  0  0  0  0  0
   -0.8400    1.0644    1.3327 H   0  0  0  0  0  0  0  0  0  0  0  0
   -0.3724   -0.3652   -0.0757 C   0  0  0  0  0  0  0  0  0  0  0  0
   -0.2890   -1.0879    0.6157 H   0  0  0  0  0  0  0  0  0  0  0  0
   -0.6622   -0.5342   -1.0604 H   0  0  0  0  0  0  0  0  0  0  0  0
    1.8432    0.0023    0.0020 Br  0  0  0  0  0  0  0  0  0  0  0  0
   -2.4321    1.0580   -0.3164 C   0  0  0  0  0  0  0  0  0  0  0  0
   -2.3636    0.9585   -1.3644 H   0  0  0  0  0  0  0  0  0  0  0  0
   -3.0631    2.0031   -0.1220 H   0  0  0  0  0  0  0  0  0  0  0  0
   -3.2843   -0.1479    0.1706 C   0  0  0  0  0  0  0  0  0  0  0  0
   -4.3500   -0.0398   -0.5033 H   0  0  0  0  0  0  0  0  0  0  0  0
   -3.6479   -0.0884    1.3380 H   0  0  0  0  0  0  0  0  0  0  0  0
   -2.7363   -1.3623   -0.0355 O   0  0  0  0  0  1  0  0  0  0  0  0
  1  3  1  0  0  0  0
  2  1  1  0  0  0  0
  4  7  1  0  0  0  0
  4  1  1  0  0  0  0
  4  5  1  0  0  0  0
  6  4  1  0  0  0  0
  8 10  1  0  0  0  0
  8 11  1  0  0  0  0
  8  1  1  0  0  0  0
  9  8  1  0  0  0  0
 11 13  1  0  0  0  0
 12 11  1  0  0  0  0
 14 11  1  0  0  0  0
M  END
$$$$
Title Card Required
 OpenBabel07152211483D

 14 13  0  0  0  0  0  0  0  0999 V2000
   -1.0682    0.9164    0.2612 C   0  0  0  0  0  0  0  0  0  0  0  0
   -0.3495    1.7972   -0.1690 H   0  0  0  0  0  0  0  0  0  0  0  0
   -0.8738    1.1407    1.3010 H   0  0  0  0  0  0  0  0  0  0  0  0
   -0.3708   -0.3577   -0.0802 C   0  0  0  0  0  0  0  0  0  0  0  0
   -0.2294   -1.1726    0.6813 H   0  0  0  0  0  0  0  0  0  0  0  0
   -0.6269   -0.5317   -1.0996 H   0  0  0  0  0  0  0  0  0  0  0  0
    1.8402    0.0016    0.0015 Br  0  0  0  0  0  0  0  0  0  0  0  0
   -2.4283    1.0441   -0.3216 C   0  0  0  0  0  0  0  0  0  0  0  0
   -2.3214    0.9663   -1.3963 H   0  0  0  0  0  0  0  0  0  0  0  0
   -3.1182    1.9926   -0.0675 H   0  0  0  0  0  0  0  0  0  0  0  0
   -3.2965   -0.1460    0.1805 C   0  0  0  0  0  0  0  0  0  0  0  0
   -4.2566   -0.0420   -0.5615 H   0  0  0  0  0  0  0  0  0  0  0  0
   -3.6523   -0.0411    1.3350 H   0  0  0  0  0  0  0  0  0  0  0  0
   -2.7331   -1.3598   -0.0387 O   0  0  0  0  0  1  0  0  0  0  0  0
  1  3  1  0  0  0  0
  2  1  1  0  0  0  0
  4  7  1  0  0  0  0
  4  1  1  0  0  0  0
  4  5  1  0  0  0  0
  6  4  1  0  0  0  0
  8 10  1  0  0  0  0
  8 11  1  0  0  0  0
  8  1  1  0  0  0  0
  9  8  1  0  0  0  0
 11 13  1  0  0  0  0
 12 11  1  0  0  0  0
 14 11  1  0  0  0  0
M  END
$$$$
Title Card Required
 OpenBabel07152211483D

 14 13  0  0  0  0  0  0  0  0999 V2000
   -1.0462    0.9259    0.2708 C   0  0  0  0  0  0  0  0  0  0  0  0
   -0.4566    1.7369   -0.1565 H   0  0  0  0  0  0  0  0  0  0  0  0
   -0.9219    1.2098    1.2904 H   0  0  0  0  0  0  0  0  0  0  0  0
   -0.3687   -0.3513   -0.0822 C   0  0  0  0  0  0  0  0  0  0  0  0
   -0.1906   -1.2405    0.7217 H   0  0  0  0  0  0  0  0  0  0  0  0
   -0.5858   -0.5544   -1.1537 H   0  0  0  0  0  0  0  0  0  0  0  0
    1.8374    0.0010    0.0009 Br  0  0  0  0  0  0  0  0  0  0  0  0
   -2.4294    1.0325   -0.3232 C   0  0  0  0  0  0  0  0  0  0  0  0
   -2.2870    0.9723   -1.4392 H   0  0  0  0  0  0  0  0  0  0  0  0
   -3.1291    1.9583   -0.0264 H   0  0  0  0  0  0  0  0  0  0  0  0
   -3.3097   -0.1482    0.1876 C   0  0  0  0  0  0  0  0  0  0  0  0
   -4.1578   -0.0387   -0.5841 H   0  0  0  0  0  0  0  0  0  0  0  0
   -3.6488    0.0157    1.2984 H   0  0  0  0  0  0  0  0  0  0  0  0
   -2.7295   -1.3554   -0.0412 O   0  0  0  0  0  1  0  0  0  0  0  0
  1  3  1  0  0  0  0
  2  1  1  0  0  0  0
  4  7  1  0  0  0  0
  4  1  1  0  0  0  0
  4  5  1  0  0  0  0
  6  4  1  0  0  0  0
  8 10  1  0  0  0  0
  8 11  1  0  0  0  0
  8  1  1  0  0  0  0
  9  8  1  0  0  0  0
 11 13  1  0  0  0  0
 12 11  1  0  0  0  0
 14 11  1  0  0  0  0
M  END
$$$$
Title Card Required
 OpenBabel07152211483D

 14 13  0  0  0  0  0  0  0  0999 V2000
   -1.0220    0.9376    0.2807 C   0  0  0  0  0  0  0  0  0  0  0  0
   -0.5592    1.6816   -0.1595 H   0  0  0  0  0  0  0  0  0  0  0  0
   -0.9822    1.2768    1.3092 H   0  0  0  0  0  0  0  0  0  0  0  0
   -0.3656   -0.3486   -0.0816 C   0  0  0  0  0  0  0  0  0  0  0  0
   -0.1755   -1.2667    0.7143 H   0  0  0  0  0  0  0  0  0  0  0  0
   -0.5315   -0.5927   -1.1953 H   0  0  0  0  0  0  0  0  0  0  0  0
    1.8343    0.0005    0.0003 Br  0  0  0  0  0  0  0  0  0  0  0  0
   -2.4344    1.0212   -0.3229 C   0  0  0  0  0  0  0  0  0  0  0  0
   -2.2616    0.9790   -1.4706 H   0  0  0  0  0  0  0  0  0  0  0  0
   -3.0992    1.9030    0.0027 H   0  0  0  0  0  0  0  0  0  0  0  0
   -3.3227   -0.1539    0.1916 C   0  0  0  0  0  0  0  0  0  0  0  0
   -4.0674   -0.0296   -0.5844 H   0  0  0  0  0  0  0  0  0  0  0  0
   -3.6431    0.0837    1.2371 H   0  0  0  0  0  0  0  0  0  0  0  0
   -2.7251   -1.3491   -0.0430 O   0  0  0  0  0  1  0  0  0  0  0  0
  1  3  1  0  0  0  0
  2  1  1  0  0  0  0
  4  7  1  0  0  0  0
  4  1  1  0  0  0  0
  4  5  1  0  0  0  0
  6  4  1  0  0  0  0
  8 10  1  0  0  0  0
  8 11  1  0  0  0  0
  8  1  1  0  0  0  0
  9  8  1  0  0  0  0
 11 13  1  0  0  0  0
 12 11  1  0  0  0  0
 14 11  1  0  0  0  0
M  END
$$$$
Title Card Required
 OpenBabel07152211483D

 14 13  0  0  0  0  0  0  0  0999 V2000
   -1.0009    0.9460    0.2948 C   0  0  0  0  0  0  0  0  0  0  0  0
   -0.6021    1.7068   -0.2247 H   0  0  0  0  0  0  0  0  0  0  0  0
   -1.0510    1.3343    1.3499 H   0  0  0  0  0  0  0  0  0  0  0  0
   -0.3606   -0.3516   -0.0793 C   0  0  0  0  0  0  0  0  0  0  0  0
   -0.1917   -1.2375    0.6489 H   0  0  0  0  0  0  0  0  0  0  0  0
   -0.4626   -0.6374   -1.1952 H   0  0  0  0  0  0  0  0  0  0  0  0
    1.8310   -0.0000   -0.0005 Br  0  0  0  0  0  0  0  0  0  0  0  0
   -2.4415    1.0087   -0.3215 C   0  0  0  0  0  0  0  0  0  0  0  0
   -2.2515    0.9870   -1.4693 H   0  0  0  0  0  0  0  0  0  0  0  0
   -3.0325    1.8418    0.0192 H   0  0  0  0  0  0  0  0  0  0  0  0
   -3.3320   -0.1635    0.1911 C   0  0  0  0  0  0  0  0  0  0  0  0
   -4.0232   -0.0120   -0.5829 H   0  0  0  0  0  0  0  0  0  0  0  0
   -3.6443    0.1627    1.1717 H   0  0  0  0  0  0  0  0  0  0  0  0
   -2.7198   -1.3411   -0.0435 O   0  0  0  0  0  1  0  0  0  0  0  0
  1  3  1  0  0  0  0
  2  1  1  0  0  0  0
  4  7  1  0  0  0  0
  4  1  1  0  0  0  0
  4  5  1  0  0  0  0
  6  4  1  0  0  0  0
  8 10  1  0  0  0  0
  8 11  1  0  0  0  0
  8  1  1  0  0  0  0
  9  8  1  0  0  0  0
 11 13  1  0  0  0  0
 12 11  1  0  0  0  0
 14 11  1  0  0  0  0
M  END
$$$$
Title Card Required
 OpenBabel07152211483D

 14 13  0  0  0  0  0  0  0  0999 V2000
   -0.9876    0.9507    0.3103 C   0  0  0  0  0  0  0  0  0  0  0  0
   -0.5857    1.7915   -0.3251 H   0  0  0  0  0  0  0  0  0  0  0  0
   -1.1062    1.3631    1.3790 H   0  0  0  0  0  0  0  0  0  0  0  0
   -0.3546   -0.3576   -0.0770 C   0  0  0  0  0  0  0  0  0  0  0  0
   -0.2321   -1.1797    0.5622 H   0  0  0  0  0  0  0  0  0  0  0  0
   -0.3983   -0.6715   -1.1523 H   0  0  0  0  0  0  0  0  0  0  0  0
    1.8280   -0.0004   -0.0013 Br  0  0  0  0  0  0  0  0  0  0  0  0
   -2.4464    0.9953   -0.3201 C   0  0  0  0  0  0  0  0  0  0  0  0
   -2.2597    0.9938   -1.4357 H   0  0  0  0  0  0  0  0  0  0  0  0
   -2.9666    1.8190    0.0301 H   0  0  0  0  0  0  0  0  0  0  0  0
   -3.3338   -0.1743    0.1855 C   0  0  0  0  0  0  0  0  0  0  0  0
   -4.0515    0.0106   -0.5974 H   0  0  0  0  0  0  0  0  0  0  0  0
   -3.6594    0.2349    1.1391 H   0  0  0  0  0  0  0  0  0  0  0  0
   -2.7144   -1.3336   -0.0424 O   0  0  0  0  0  1  0  0  0  0  0  0
  1  3  1  0  0  0  0
  2  1  1  0  0  0  0
  4  7  1  0  0  0  0
  4  1  1  0  0  0  0
  4  5  1  0  0  0  0
  6  4  1  0  0  0  0
  8 10  1  0  0  0  0
  8 11  1  0  0  0  0
  8  1  1  0  0  0  0
  9  8  1  0  0  0  0
 11 13  1  0  0  0  0
 12 11  1  0  0  0  0
 14 11  1  0  0  0  0
M  END
$$$$
Title Card Required
 OpenBabel07152211483D

 14 13  0  0  0  0  0  0  0  0999 V2000
   -0.9775    0.9583    0.3247 C   0  0  0  0  0  0  0  0  0  0  0  0
   -0.5541    1.8675   -0.4131 H   0  0  0  0  0  0  0  0  0  0  0  0
   -1.1458    1.3644    1.3858 H   0  0  0  0  0  0  0  0  0  0  0  0
   -0.3468   -0.3617   -0.0764 C   0  0  0  0  0  0  0  0  0  0  0  0
   -0.2888   -1.1449    0.4967 H   0  0  0  0  0  0  0  0  0  0  0  0
   -0.3385   -0.6967   -1.0865 H   0  0  0  0  0  0  0  0  0  0  0  0
    1.8249   -0.0008   -0.0021 Br  0  0  0  0  0  0  0  0  0  0  0  0
   -2.4478    0.9776   -0.3184 C   0  0  0  0  0  0  0  0  0  0  0  0
   -2.2827    0.9987   -1.3849 H   0  0  0  0  0  0  0  0  0  0  0  0
   -2.9144    1.8551    0.0468 H   0  0  0  0  0  0  0  0  0  0  0  0
   -3.3304   -0.1859    0.1733 C   0  0  0  0  0  0  0  0  0  0  0  0
   -4.1361    0.0350   -0.6176 H   0  0  0  0  0  0  0  0  0  0  0  0
   -3.6890    0.3008    1.1364 H   0  0  0  0  0  0  0  0  0  0  0  0
   -2.7084   -1.3261   -0.0394 O   0  0  0  0  0  1  0  0  0  0  0  0
  1  3  1  0  0  0  0
  2  1  1  0  0  0  0
  4  7  1  0  0  0  0
  4  1  1  0  0  0  0
  4  5  1  0  0  0  0
  6  4  1  0  0  0  0
  8 10  1  0  0  0  0
  8 11  1  0  0  0  0
  8  1  1  0  0  0  0
  9  8  1  0  0  0  0
 11 13  1  0  0  0  0
 12 11  1  0  0  0  0
 14 11  1  0  0  0  0
M  END
$$$$
Title Card Required
 OpenBabel07152211483D

 14 13  0  0  0  0  0  0  0  0999 V2000
   -0.9697    0.9718    0.3335 C   0  0  0  0  0  0  0  0  0  0  0  0
   -0.5293    1.8887   -0.4459 H   0  0  0  0  0  0  0  0  0  0  0  0
   -1.1599    1.3348    1.3690 H   0  0  0  0  0  0  0  0  0  0  0  0
   -0.3364   -0.3563   -0.0781 C   0  0  0  0  0  0  0  0  0  0  0  0
   -0.3579   -1.2042    0.5137 H   0  0  0  0  0  0  0  0  0  0  0  0
   -0.2900   -0.7161   -1.0414 H   0  0  0  0  0  0  0  0  0  0  0  0
    1.8216   -0.0012   -0.0030 Br  0  0  0  0  0  0  0  0  0  0  0  0
   -2.4458    0.9570   -0.3131 C   0  0  0  0  0  0  0  0  0  0  0  0
   -2.3148    1.0003   -1.3502 H   0  0  0  0  0  0  0  0  0  0  0  0
   -2.8728    1.9401    0.0638 H   0  0  0  0  0  0  0  0  0  0  0  0
   -3.3245   -0.1959    0.1535 C   0  0  0  0  0  0  0  0  0  0  0  0
   -4.2511    0.0520   -0.6190 H   0  0  0  0  0  0  0  0  0  0  0  0
   -3.7272    0.3413    1.1496 H   0  0  0  0  0  0  0  0  0  0  0  0
   -2.7019   -1.3189   -0.0341 O   0  0  0  0  0  1  0  0  0  0  0  0
  1  3  1  0  0  0  0
  2  1  1  0  0  0  0
  4  7  1  0  0  0  0
  4  1  1  0  0  0  0
  4  5  1  0  0  0  0
  6  4  1  0  0  0  0
  8 10  1  0  0  0  0
  8 11  1  0  0  0  0
  8  1  1  0  0  0  0
  9  8  1  0  0  0  0
 11 13  1  0  0  0  0
 12 11  1  0  0  0  0
 14 11  1  0  0  0  0
M  END
$$$$
Title Card Required
 OpenBabel07152211483D

 14 13  0  0  0  0  0  0  0  0999 V2000
   -0.9651    0.9884    0.3321 C   0  0  0  0  0  0  0  0  0  0  0  0
   -0.5193    1.8464   -0.4060 H   0  0  0  0  0  0  0  0  0  0  0  0
   -1.1450    1.2857    1.3485 H   0  0  0  0  0  0  0  0  0  0  0  0
   -0.3235   -0.3448   -0.0756 C   0  0  0  0  0  0  0  0  0  0  0  0
   -0.4343   -1.3013    0.5799 H   0  0  0  0  0  0  0  0  0  0  0  0
   -0.2609   -0.7336   -1.0599 H   0  0  0  0  0  0  0  0  0  0  0  0
    1.8184   -0.0017   -0.0039 Br  0  0  0  0  0  0  0  0  0  0  0  0
   -2.4422    0.9407   -0.3019 C   0  0  0  0  0  0  0  0  0  0  0  0
   -2.3446    0.9983   -1.3663 H   0  0  0  0  0  0  0  0  0  0  0  0
   -2.8320    2.0141    0.0633 H   0  0  0  0  0  0  0  0  0  0  0  0
   -3.3205   -0.2006    0.1299 C   0  0  0  0  0  0  0  0  0  0  0  0
   -4.3509    0.0510   -0.5872 H   0  0  0  0  0  0  0  0  0  0  0  0
   -3.7593    0.3351    1.1582 H   0  0  0  0  0  0  0  0  0  0  0  0
   -2.6957   -1.3132   -0.0273 O   0  0  0  0  0  1  0  0  0  0  0  0
  1  3  1  0  0  0  0
  2  1  1  0  0  0  0
  4  7  1  0  0  0  0
  4  1  1  0  0  0  0
  4  5  1  0  0  0  0
  6  4  1  0  0  0  0
  8 10  1  0  0  0  0
  8 11  1  0  0  0  0
  8  1  1  0  0  0  0
  9  8  1  0  0  0  0
 11 13  1  0  0  0  0
 12 11  1  0  0  0  0
 14 11  1  0  0  0  0
M  END
$$$$
Title Card Required
 OpenBabel07152211483D

 14 13  0  0  0  0  0  0  0  0999 V2000
   -0.9634    1.0040    0.3206 C   0  0  0  0  0  0  0  0  0  0  0  0
   -0.5181    1.7667   -0.3134 H   0  0  0  0  0  0  0  0  0  0  0  0
   -1.1094    1.2323    1.3498 H   0  0  0  0  0  0  0  0  0  0  0  0
   -0.3086   -0.3357   -0.0663 C   0  0  0  0  0  0  0  0  0  0  0  0
   -0.5082   -1.3464    0.6276 H   0  0  0  0  0  0  0  0  0  0  0  0
   -0.2527   -0.7405   -1.1102 H   0  0  0  0  0  0  0  0  0  0  0  0
    1.8152   -0.0021   -0.0046 Br  0  0  0  0  0  0  0  0  0  0  0  0
   -2.4374    0.9325   -0.2876 C   0  0  0  0  0  0  0  0  0  0  0  0
   -2.3690    0.9930   -1.4096 H   0  0  0  0  0  0  0  0  0  0  0  0
   -2.7896    2.0430    0.0406 H   0  0  0  0  0  0  0  0  0  0  0  0
   -3.3203   -0.2001    0.1058 C   0  0  0  0  0  0  0  0  0  0  0  0
   -4.4144    0.0317   -0.5296 H   0  0  0  0  0  0  0  0  0  0  0  0
   -3.7780    0.2838    1.1542 H   0  0  0  0  0  0  0  0  0  0  0  0
   -2.6903   -1.3091   -0.0196 O   0  0  0  0  0  1  0  0  0  0  0  0
  1  3  1  0  0  0  0
  2  1  1  0  0  0  0
  4  7  1  0  0  0  0
  4  1  1  0  0  0  0
  4  5  1  0  0  0  0
  6  4  1  0  0  0  0
  8 10  1  0  0  0  0
  8 11  1  0  0  0  0
  8  1  1  0  0  0  0
  9  8  1  0  0  0  0
 11 13  1  0  0  0  0
 12 11  1  0  0  0  0
 14 11  1  0  0  0  0
M  END
$$$$
Title Card Required
 OpenBabel07152211483D

 14 13  0  0  0  0  0  0  0  0999 V2000
   -0.9658    1.0140    0.3030 C   0  0  0  0  0  0  0  0  0  0  0  0
   -0.5012    1.7034   -0.2122 H   0  0  0  0  0  0  0  0  0  0  0  0
   -1.0591    1.1796    1.3771 H   0  0  0  0  0  0  0  0  0  0  0  0
   -0.2922   -0.3320   -0.0531 C   0  0  0  0  0  0  0  0  0  0  0  0
   -0.5698   -1.3181    0.6377 H   0  0  0  0  0  0  0  0  0  0  0  0
   -0.2646   -0.7252   -1.1451 H   0  0  0  0  0  0  0  0  0  0  0  0
    1.8120   -0.0026   -0.0053 Br  0  0  0  0  0  0  0  0  0  0  0  0
   -2.4311    0.9330   -0.2743 C   0  0  0  0  0  0  0  0  0  0  0  0
   -2.3873    0.9837   -1.4413 H   0  0  0  0  0  0  0  0  0  0  0  0
   -2.7500    2.0241    0.0007 H   0  0  0  0  0  0  0  0  0  0  0  0
   -3.3250   -0.1956    0.0833 C   0  0  0  0  0  0  0  0  0  0  0  0
   -4.4362   -0.0035   -0.4570 H   0  0  0  0  0  0  0  0  0  0  0  0
   -3.7813    0.1965    1.1379 H   0  0  0  0  0  0  0  0  0  0  0  0
   -2.6855   -1.3066   -0.0115 O   0  0  0  0  0  1  0  0  0  0  0  0
  1  3  1  0  0  0  0
  2  1  1  0  0  0  0
  4  7  1  0  0  0  0
  4  1  1  0  0  0  0
  4  5  1  0  0  0  0
  6  4  1  0  0  0  0
  8 10  1  0  0  0  0
  8 11  1  0  0  0  0
  8  1  1  0  0  0  0
  9  8  1  0  0  0  0
 11 13  1  0  0  0  0
 12 11  1  0  0  0  0
 14 11  1  0  0  0  0
M  END
$$$$
Title Card Required
 OpenBabel07152211483D

 14 13  0  0  0  0  0  0  0  0999 V2000
   -0.9744    1.0123    0.2875 C   0  0  0  0  0  0  0  0  0  0  0  0
   -0.4330    1.7254   -0.1617 H   0  0  0  0  0  0  0  0  0  0  0  0
   -1.0023    1.1306    1.4081 H   0  0  0  0  0  0  0  0  0  0  0  0
   -0.2763   -0.3333   -0.0400 C   0  0  0  0  0  0  0  0  0  0  0  0
   -0.6099   -1.2320    0.6146 H   0  0  0  0  0  0  0  0  0  0  0  0
   -0.2919   -0.6877   -1.1408 H   0  0  0  0  0  0  0  0  0  0  0  0
    1.8088   -0.0031   -0.0058 Br  0  0  0  0  0  0  0  0  0  0  0  0
   -2.4237    0.9412   -0.2658 C   0  0  0  0  0  0  0  0  0  0  0  0
   -2.3961    0.9712   -1.4402 H   0  0  0  0  0  0  0  0  0  0  0  0
   -2.7237    1.9762   -0.0450 H   0  0  0  0  0  0  0  0  0  0  0  0
   -3.3336   -0.1891    0.0652 C   0  0  0  0  0  0  0  0  0  0  0  0
   -4.4195   -0.0470   -0.3881 H   0  0  0  0  0  0  0  0  0  0  0  0
   -3.7702    0.0939    1.1170 H   0  0  0  0  0  0  0  0  0  0  0  0
   -2.6813   -1.3060   -0.0041 O   0  0  0  0  0  1  0  0  0  0  0  0
  1  3  1  0  0  0  0
  2  1  1  0  0  0  0
  4  7  1  0  0  0  0
  4  1  1  0  0  0  0
  4  5  1  0  0  0  0
  6  4  1  0  0  0  0
  8 10  1  0  0  0  0
  8 11  1  0  0  0  0
  8  1  1  0  0  0  0
  9  8  1  0  0  0  0
 11 13  1  0  0  0  0
 12 11  1  0  0  0  0
 14 11  1  0  0  0  0
M  END
$$$$
Title Card Required
 OpenBabel07152211483D

 14 13  0  0  0  0  0  0  0  0999 V2000
   -0.9855    1.0028    0.2764 C   0  0  0  0  0  0  0  0  0  0  0  0
   -0.3397    1.8008   -0.1468 H   0  0  0  0  0  0  0  0  0  0  0  0
   -0.9495    1.0880    1.4225 H   0  0  0  0  0  0  0  0  0  0  0  0
   -0.2622   -0.3364   -0.0295 C   0  0  0  0  0  0  0  0  0  0  0  0
   -0.6314   -1.1298    0.5804 H   0  0  0  0  0  0  0  0  0  0  0  0
   -0.3252   -0.6405   -1.1074 H   0  0  0  0  0  0  0  0  0  0  0  0
    1.8060   -0.0036   -0.0062 Br  0  0  0  0  0  0  0  0  0  0  0  0
   -2.4159    0.9526   -0.2627 C   0  0  0  0  0  0  0  0  0  0  0  0
   -2.3950    0.9576   -1.4133 H   0  0  0  0  0  0  0  0  0  0  0  0
   -2.7181    1.9359   -0.0831 H   0  0  0  0  0  0  0  0  0  0  0  0
   -3.3433   -0.1829    0.0531 C   0  0  0  0  0  0  0  0  0  0  0  0
   -4.3846   -0.0887   -0.3406 H   0  0  0  0  0  0  0  0  0  0  0  0
   -3.7514   -0.0009    1.1026 H   0  0  0  0  0  0  0  0  0  0  0  0
   -2.6776   -1.3069    0.0019 O   0  0  0  0  0  1  0  0  0  0  0  0
  1  3  1  0  0  0  0
  2  1  1  0  0  0  0
  4  7  1  0  0  0  0
  4  1  1  0  0  0  0
  4  5  1  0  0  0  0
  6  4  1  0  0  0  0
  8 10  1  0  0  0  0
  8 11  1  0  0  0  0
  8  1  1  0  0  0  0
  9  8  1  0  0  0  0
 11 13  1  0  0  0  0
 12 11  1  0  0  0  0
 14 11  1  0  0  0  0
M  END
$$$$
Title Card Required
 OpenBabel07152211483D

 14 13  0  0  0  0  0  0  0  0999 V2000
   -0.9962    0.9889    0.2661 C   0  0  0  0  0  0  0  0  0  0  0  0
   -0.2494    1.8849   -0.1306 H   0  0  0  0  0  0  0  0  0  0  0  0
   -0.8969    1.0451    1.4150 H   0  0  0  0  0  0  0  0  0  0  0  0
   -0.2464   -0.3375   -0.0213 C   0  0  0  0  0  0  0  0  0  0  0  0
   -0.6517   -1.0363    0.5588 H   0  0  0  0  0  0  0  0  0  0  0  0
   -0.3667   -0.5845   -1.0549 H   0  0  0  0  0  0  0  0  0  0  0  0
    1.8028   -0.0042   -0.0065 Br  0  0  0  0  0  0  0  0  0  0  0  0
   -2.4065    0.9663   -0.2640 C   0  0  0  0  0  0  0  0  0  0  0  0
   -2.3826    0.9407   -1.3668 H   0  0  0  0  0  0  0  0  0  0  0  0
   -2.7408    1.9301   -0.1133 H   0  0  0  0  0  0  0  0  0  0  0  0
   -3.3533   -0.1768    0.0451 C   0  0  0  0  0  0  0  0  0  0  0  0
   -4.3492   -0.1308   -0.3203 H   0  0  0  0  0  0  0  0  0  0  0  0
   -3.7261   -0.0944    1.1026 H   0  0  0  0  0  0  0  0  0  0  0  0
   -2.6734   -1.3095    0.0072 O   0  0  0  0  0  1  0  0  0  0  0  0
  1  3  1  0  0  0  0
  2  1  1  0  0  0  0
  4  7  1  0  0  0  0
  4  1  1  0  0  0  0
  4  5  1  0  0  0  0
  6  4  1  0  0  0  0
  8 10  1  0  0  0  0
  8 11  1  0  0  0  0
  8  1  1  0  0  0  0
  9  8  1  0  0  0  0
 11 13  1  0  0  0  0
 12 11  1  0  0  0  0
 14 11  1  0  0  0  0
M  END
$$$$
Title Card Required
 OpenBabel07152211483D

 14 13  0  0  0  0  0  0  0  0999 V2000
   -1.0015    0.9729    0.2562 C   0  0  0  0  0  0  0  0  0  0  0  0
   -0.2015    1.9359   -0.0934 H   0  0  0  0  0  0  0  0  0  0  0  0
   -0.8506    1.0038    1.3761 H   0  0  0  0  0  0  0  0  0  0  0  0
   -0.2254   -0.3299   -0.0173 C   0  0  0  0  0  0  0  0  0  0  0  0
   -0.6963   -1.0101    0.5983 H   0  0  0  0  0  0  0  0  0  0  0  0
   -0.4196   -0.5306   -1.0112 H   0  0  0  0  0  0  0  0  0  0  0  0
    1.7987   -0.0050   -0.0068 Br  0  0  0  0  0  0  0  0  0  0  0  0
   -2.3956    0.9824   -0.2697 C   0  0  0  0  0  0  0  0  0  0  0  0
   -2.3521    0.9178   -1.3208 H   0  0  0  0  0  0  0  0  0  0  0  0
   -2.8050    1.9862   -0.1312 H   0  0  0  0  0  0  0  0  0  0  0  0
   -3.3604   -0.1723    0.0442 C   0  0  0  0  0  0  0  0  0  0  0  0
   -4.3467   -0.1686   -0.3560 H   0  0  0  0  0  0  0  0  0  0  0  0
   -3.6965   -0.1770    1.1290 H   0  0  0  0  0  0  0  0  0  0  0  0
   -2.6676   -1.3149    0.0113 O   0  0  0  0  0  1  0  0  0  0  0  0
  1  3  1  0  0  0  0
  2  1  1  0  0  0  0
  4  7  1  0  0  0  0
  4  1  1  0  0  0  0
  4  5  1  0  0  0  0
  6  4  1  0  0  0  0
  8 10  1  0  0  0  0
  8 11  1  0  0  0  0
  8  1  1  0  0  0  0
  9  8  1  0  0  0  0
 11 13  1  0  0  0  0
 12 11  1  0  0  0  0
 14 11  1  0  0  0  0
M  END
$$$$
Title Card Required
 OpenBabel07152211483D

 14 13  0  0  0  0  0  0  0  0999 V2000
   -0.9967    0.9605    0.2495 C   0  0  0  0  0  0  0  0  0  0  0  0
   -0.2301    1.9206   -0.0412 H   0  0  0  0  0  0  0  0  0  0  0  0
   -0.8304    0.9793    1.3251 H   0  0  0  0  0  0  0  0  0  0  0  0
   -0.2038   -0.3148   -0.0154 C   0  0  0  0  0  0  0  0  0  0  0  0
   -0.7450   -1.0509    0.6803 H   0  0  0  0  0  0  0  0  0  0  0  0
   -0.4737   -0.5084   -1.0249 H   0  0  0  0  0  0  0  0  0  0  0  0
    1.7944   -0.0059   -0.0068 Br  0  0  0  0  0  0  0  0  0  0  0  0
   -2.3884    1.0009   -0.2759 C   0  0  0  0  0  0  0  0  0  0  0  0
   -2.3071    0.8925   -1.3258 H   0  0  0  0  0  0  0  0  0  0  0  0
   -2.8807    2.0586   -0.1384 H   0  0  0  0  0  0  0  0  0  0  0  0
   -3.3617   -0.1719    0.0535 C   0  0  0  0  0  0  0  0  0  0  0  0
   -4.3811   -0.1880   -0.4480 H   0  0  0  0  0  0  0  0  0  0  0  0
   -3.6738   -0.2161    1.1695 H   0  0  0  0  0  0  0  0  0  0  0  0
   -2.6610   -1.3219    0.0126 O   0  0  0  0  0  1  0  0  0  0  0  0
  1  3  1  0  0  0  0
  2  1  1  0  0  0  0
  4  7  1  0  0  0  0
  4  1  1  0  0  0  0
  4  5  1  0  0  0  0
  6  4  1  0  0  0  0
  8 10  1  0  0  0  0
  8 11  1  0  0  0  0
  8  1  1  0  0  0  0
  9  8  1  0  0  0  0
 11 13  1  0  0  0  0
 12 11  1  0  0  0  0
 14 11  1  0  0  0  0
M  END
$$$$
Title Card Required
 OpenBabel07152211483D

 14 13  0  0  0  0  0  0  0  0999 V2000
   -0.9834    0.9531    0.2460 C   0  0  0  0  0  0  0  0  0  0  0  0
   -0.3196    1.8526    0.0106 H   0  0  0  0  0  0  0  0  0  0  0  0
   -0.8384    0.9745    1.2976 H   0  0  0  0  0  0  0  0  0  0  0  0
   -0.1864   -0.2999   -0.0133 C   0  0  0  0  0  0  0  0  0  0  0  0
   -0.7564   -1.0902    0.7359 H   0  0  0  0  0  0  0  0  0  0  0  0
   -0.5163   -0.5194   -1.0690 H   0  0  0  0  0  0  0  0  0  0  0  0
    1.7900   -0.0069   -0.0068 Br  0  0  0  0  0  0  0  0  0  0  0  0
   -2.3873    1.0231   -0.2816 C   0  0  0  0  0  0  0  0  0  0  0  0
   -2.2565    0.8693   -1.3761 H   0  0  0  0  0  0  0  0  0  0  0  0
   -2.9340    2.0932   -0.1447 H   0  0  0  0  0  0  0  0  0  0  0  0
   -3.3598   -0.1765    0.0704 C   0  0  0  0  0  0  0  0  0  0  0  0
   -4.4044   -0.1869   -0.5566 H   0  0  0  0  0  0  0  0  0  0  0  0
   -3.6629   -0.2075    1.1991 H   0  0  0  0  0  0  0  0  0  0  0  0
   -2.6540   -1.3295    0.0112 O   0  0  0  0  0  1  0  0  0  0  0  0
  1  3  1  0  0  0  0
  2  1  1  0  0  0  0
  4  7  1  0  0  0  0
  4  1  1  0  0  0  0
  4  5  1  0  0  0  0
  6  4  1  0  0  0  0
  8 10  1  0  0  0  0
  8 11  1  0  0  0  0
  8  1  1  0  0  0  0
  9  8  1  0  0  0  0
 11 13  1  0  0  0  0
 12 11  1  0  0  0  0
 14 11  1  0  0  0  0
M  END
$$$$
Title Card Required
 OpenBabel07152211483D

 14 13  0  0  0  0  0  0  0  0999 V2000
   -0.9657    0.9490    0.2454 C   0  0  0  0  0  0  0  0  0  0  0  0
   -0.4310    1.7758    0.0451 H   0  0  0  0  0  0  0  0  0  0  0  0
   -0.8720    0.9855    1.3163 H   0  0  0  0  0  0  0  0  0  0  0  0
   -0.1752   -0.2891   -0.0129 C   0  0  0  0  0  0  0  0  0  0  0  0
   -0.7161   -1.1001    0.7385 H   0  0  0  0  0  0  0  0  0  0  0  0
   -0.5342   -0.5529   -1.0951 H   0  0  0  0  0  0  0  0  0  0  0  0
    1.7854   -0.0080   -0.0066 Br  0  0  0  0  0  0  0  0  0  0  0  0
   -2.3919    1.0480   -0.2895 C   0  0  0  0  0  0  0  0  0  0  0  0
   -2.2106    0.8554   -1.4284 H   0  0  0  0  0  0  0  0  0  0  0  0
   -2.9523    2.0786   -0.1546 H   0  0  0  0  0  0  0  0  0  0  0  0
   -3.3563   -0.1859    0.0920 C   0  0  0  0  0  0  0  0  0  0  0  0
   -4.3861   -0.1674   -0.6495 H   0  0  0  0  0  0  0  0  0  0  0  0
   -3.6661   -0.1571    1.2054 H   0  0  0  0  0  0  0  0  0  0  0  0
   -2.6472   -1.3366    0.0079 O   0  0  0  0  0  1  0  0  0  0  0  0
  1  3  1  0  0  0  0
  2  1  1  0  0  0  0
  4  7  1  0  0  0  0
  4  1  1  0  0  0  0
  4  5  1  0  0  0  0
  6  4  1  0  0  0  0
  8 10  1  0  0  0  0
  8 11  1  0  0  0  0
  8  1  1  0  0  0  0
  9  8  1  0  0  0  0
 11 13  1  0  0  0  0
 12 11  1  0  0  0  0
 14 11  1  0  0  0  0
M  END
$$$$
Title Card Required
 OpenBabel07152211483D

 14 13  0  0  0  0  0  0  0  0999 V2000
   -0.9514    0.9420    0.2505 C   0  0  0  0  0  0  0  0  0  0  0  0
   -0.4928    1.7817    0.0368 H   0  0  0  0  0  0  0  0  0  0  0  0
   -0.9280    1.0061    1.3688 H   0  0  0  0  0  0  0  0  0  0  0  0
   -0.1708   -0.2838   -0.0161 C   0  0  0  0  0  0  0  0  0  0  0  0
   -0.6268   -1.0791    0.6906 H   0  0  0  0  0  0  0  0  0  0  0  0
   -0.5202   -0.5980   -1.0794 H   0  0  0  0  0  0  0  0  0  0  0  0
    1.7807   -0.0091   -0.0064 Br  0  0  0  0  0  0  0  0  0  0  0  0
   -2.4000    1.0719   -0.3014 C   0  0  0  0  0  0  0  0  0  0  0  0
   -2.1800    0.8572   -1.4485 H   0  0  0  0  0  0  0  0  0  0  0  0
   -2.9370    2.0290   -0.1676 H   0  0  0  0  0  0  0  0  0  0  0  0
   -3.3506   -0.1992    0.1142 C   0  0  0  0  0  0  0  0  0  0  0  0
   -4.3216   -0.1340   -0.7044 H   0  0  0  0  0  0  0  0  0  0  0  0
   -3.6847   -0.0755    1.1887 H   0  0  0  0  0  0  0  0  0  0  0  0
   -2.6411   -1.3423    0.0035 O   0  0  0  0  0  1  0  0  0  0  0  0
  1  3  1  0  0  0  0
  2  1  1  0  0  0  0
  4  7  1  0  0  0  0
  4  1  1  0  0  0  0
  4  5  1  0  0  0  0
  6  4  1  0  0  0  0
  8 10  1  0  0  0  0
  8 11  1  0  0  0  0
  8  1  1  0  0  0  0
  9  8  1  0  0  0  0
 11 13  1  0  0  0  0
 12 11  1  0  0  0  0
 14 11  1  0  0  0  0
M  END
$$$$
Title Card Required
 OpenBabel07152211483D

 14 13  0  0  0  0  0  0  0  0999 V2000
   -0.9447    0.9334    0.2609 C   0  0  0  0  0  0  0  0  0  0  0  0
   -0.4899    1.8687   -0.0047 H   0  0  0  0  0  0  0  0  0  0  0  0
   -0.9858    1.0261    1.4112 H   0  0  0  0  0  0  0  0  0  0  0  0
   -0.1712   -0.2830   -0.0220 C   0  0  0  0  0  0  0  0  0  0  0  0
   -0.5264   -1.0499    0.6297 H   0  0  0  0  0  0  0  0  0  0  0  0
   -0.4866   -0.6382   -1.0379 H   0  0  0  0  0  0  0  0  0  0  0  0
    1.7768   -0.0100   -0.0062 Br  0  0  0  0  0  0  0  0  0  0  0  0
   -2.4071    1.0872   -0.3144 C   0  0  0  0  0  0  0  0  0  0  0  0
   -2.1711    0.8724   -1.4343 H   0  0  0  0  0  0  0  0  0  0  0  0
   -2.9126    1.9905   -0.1771 H   0  0  0  0  0  0  0  0  0  0  0  0
   -3.3435   -0.2120    0.1301 C   0  0  0  0  0  0  0  0  0  0  0  0
   -4.2406   -0.1006   -0.7147 H   0  0  0  0  0  0  0  0  0  0  0  0
   -3.7119    0.0065    1.1657 H   0  0  0  0  0  0  0  0  0  0  0  0
   -2.6371   -1.3457   -0.0003 O   0  0  0  0  0  1  0  0  0  0  0  0
  1  3  1  0  0  0  0
  2  1  1  0  0  0  0
  4  7  1  0  0  0  0
  4  1  1  0  0  0  0
  4  5  1  0  0  0  0
  6  4  1  0  0  0  0
  8 10  1  0  0  0  0
  8 11  1  0  0  0  0
  8  1  1  0  0  0  0
  9  8  1  0  0  0  0
 11 13  1  0  0  0  0
 12 11  1  0  0  0  0
 14 11  1  0  0  0  0
M  END
$$$$
Title Card Required
 OpenBabel07152211483D

 14 13  0  0  0  0  0  0  0  0999 V2000
   -0.9415    0.9279    0.2757 C   0  0  0  0  0  0  0  0  0  0  0  0
   -0.4670    1.9678   -0.0558 H   0  0  0  0  0  0  0  0  0  0  0  0
   -1.0445    1.0450    1.4335 H   0  0  0  0  0  0  0  0  0  0  0  0
   -0.1730   -0.2831   -0.0313 C   0  0  0  0  0  0  0  0  0  0  0  0
   -0.4234   -1.0375    0.5819 H   0  0  0  0  0  0  0  0  0  0  0  0
   -0.4420   -0.6774   -0.9890 H   0  0  0  0  0  0  0  0  0  0  0  0
    1.7730   -0.0109   -0.0059 Br  0  0  0  0  0  0  0  0  0  0  0  0
   -2.4118    1.0949   -0.3291 C   0  0  0  0  0  0  0  0  0  0  0  0
   -2.1777    0.8977   -1.4005 H   0  0  0  0  0  0  0  0  0  0  0  0
   -2.8966    1.9884   -0.1800 H   0  0  0  0  0  0  0  0  0  0  0  0
   -3.3342   -0.2247    0.1419 C   0  0  0  0  0  0  0  0  0  0  0  0
   -4.1489   -0.0680   -0.6950 H   0  0  0  0  0  0  0  0  0  0  0  0
   -3.7468    0.0905    1.1430 H   0  0  0  0  0  0  0  0  0  0  0  0
   -2.6339   -1.3478   -0.0036 O   0  0  0  0  0  1  0  0  0  0  0  0
  1  3  1  0  0  0  0
  2  1  1  0  0  0  0
  4  7  1  0  0  0  0
  4  1  1  0  0  0  0
  4  5  1  0  0  0  0
  6  4  1  0  0  0  0
  8 10  1  0  0  0  0
  8 11  1  0  0  0  0
  8  1  1  0  0  0  0
  9  8  1  0  0  0  0
 11 13  1  0  0  0  0
 12 11  1  0  0  0  0
 14 11  1  0  0  0  0
M  END
$$$$
Title Card Required
 OpenBabel07152211483D

 14 13  0  0  0  0  0  0  0  0999 V2000
   -0.9408    0.9297    0.2947 C   0  0  0  0  0  0  0  0  0  0  0  0
   -0.4458    2.0333   -0.1003 H   0  0  0  0  0  0  0  0  0  0  0  0
   -1.1019    1.0617    1.4293 H   0  0  0  0  0  0  0  0  0  0  0  0
   -0.1746   -0.2806   -0.0449 C   0  0  0  0  0  0  0  0  0  0  0  0
   -0.3234   -1.0734    0.5772 H   0  0  0  0  0  0  0  0  0  0  0  0
   -0.3926   -0.7227   -0.9560 H   0  0  0  0  0  0  0  0  0  0  0  0
    1.7690   -0.0119   -0.0056 Br  0  0  0  0  0  0  0  0  0  0  0  0
   -2.4135    1.0944   -0.3448 C   0  0  0  0  0  0  0  0  0  0  0  0
   -2.1974    0.9310   -1.3644 H   0  0  0  0  0  0  0  0  0  0  0  0
   -2.8949    2.0364   -0.1730 H   0  0  0  0  0  0  0  0  0  0  0  0
   -3.3214   -0.2371    0.1501 C   0  0  0  0  0  0  0  0  0  0  0  0
   -4.0542   -0.0373   -0.6523 H   0  0  0  0  0  0  0  0  0  0  0  0
   -3.7884    0.1758    1.1205 H   0  0  0  0  0  0  0  0  0  0  0  0
   -2.6314   -1.3491   -0.0061 O   0  0  0  0  0  1  0  0  0  0  0  0
  1  3  1  0  0  0  0
  2  1  1  0  0  0  0
  4  7  1  0  0  0  0
  4  1  1  0  0  0  0
  4  5  1  0  0  0  0
  6  4  1  0  0  0  0
  8 10  1  0  0  0  0
  8 11  1  0  0  0  0
  8  1  1  0  0  0  0
  9  8  1  0  0  0  0
 11 13  1  0  0  0  0
 12 11  1  0  0  0  0
 14 11  1  0  0  0  0
M  END
$$$$
Title Card Required
 OpenBabel07152211483D

 14 13  0  0  0  0  0  0  0  0999 V2000
   -0.9432    0.9420    0.3162 C   0  0  0  0  0  0  0  0  0  0  0  0
   -0.4362    2.0340   -0.1228 H   0  0  0  0  0  0  0  0  0  0  0  0
   -1.1507    1.0743    1.3987 H   0  0  0  0  0  0  0  0  0  0  0  0
   -0.1752   -0.2753   -0.0603 C   0  0  0  0  0  0  0  0  0  0  0  0
   -0.2284   -1.1536    0.6203 H   0  0  0  0  0  0  0  0  0  0  0  0
   -0.3483   -0.7799   -0.9697 H   0  0  0  0  0  0  0  0  0  0  0  0
    1.7649   -0.0129   -0.0053 Br  0  0  0  0  0  0  0  0  0  0  0  0
   -2.4124    1.0872   -0.3575 C   0  0  0  0  0  0  0  0  0  0  0  0
   -2.2244    0.9657   -1.3659 H   0  0  0  0  0  0  0  0  0  0  0  0
   -2.8961    2.1130   -0.1585 H   0  0  0  0  0  0  0  0  0  0  0  0
   -3.3036   -0.2470    0.1555 C   0  0  0  0  0  0  0  0  0  0  0  0
   -3.9860   -0.0110   -0.6081 H   0  0  0  0  0  0  0  0  0  0  0  0
   -3.8284    0.2503    1.0964 H   0  0  0  0  0  0  0  0  0  0  0  0
   -2.6290   -1.3501   -0.0075 O   0  0  0  0  0  1  0  0  0  0  0  0
  1  3  1  0  0  0  0
  2  1  1  0  0  0  0
  4  7  1  0  0  0  0
  4  1  1  0  0  0  0
  4  5  1  0  0  0  0
  6  4  1  0  0  0  0
  8 10  1  0  0  0  0
  8 11  1  0  0  0  0
  8  1  1  0  0  0  0
  9  8  1  0  0  0  0
 11 13  1  0  0  0  0
 12 11  1  0  0  0  0
 14 11  1  0  0  0  0
M  END
$$$$
Title Card Required
 OpenBabel07152211483D

 14 13  0  0  0  0  0  0  0  0999 V2000
   -0.9491    0.9659    0.3357 C   0  0  0  0  0  0  0  0  0  0  0  0
   -0.4427    1.9521   -0.1091 H   0  0  0  0  0  0  0  0  0  0  0  0
   -1.1858    1.0824    1.3637 H   0  0  0  0  0  0  0  0  0  0  0  0
   -0.1755   -0.2729   -0.0731 C   0  0  0  0  0  0  0  0  0  0  0  0
   -0.1419   -1.2172    0.6692 H   0  0  0  0  0  0  0  0  0  0  0  0
   -0.3150   -0.8377   -1.0263 H   0  0  0  0  0  0  0  0  0  0  0  0
    1.7607   -0.0138   -0.0049 Br  0  0  0  0  0  0  0  0  0  0  0  0
   -2.4090    1.0771   -0.3627 C   0  0  0  0  0  0  0  0  0  0  0  0
   -2.2529    0.9976   -1.4360 H   0  0  0  0  0  0  0  0  0  0  0  0
   -2.8798    2.1694   -0.1440 H   0  0  0  0  0  0  0  0  0  0  0  0
   -3.2796   -0.2516    0.1593 C   0  0  0  0  0  0  0  0  0  0  0  0
   -3.9875    0.0096   -0.5981 H   0  0  0  0  0  0  0  0  0  0  0  0
   -3.8531    0.2952    1.0706 H   0  0  0  0  0  0  0  0  0  0  0  0
   -2.6267   -1.3513   -0.0068 O   0  0  0  0  0  1  0  0  0  0  0  0
  1  3  1  0  0  0  0
  2  1  1  0  0  0  0
  4  7  1  0  0  0  0
  4  1  1  0  0  0  0
  4  5  1  0  0  0  0
  6  4  1  0  0  0  0
  8 10  1  0  0  0  0
  8 11  1  0  0  0  0
  8  1  1  0  0  0  0
  9  8  1  0  0  0  0
 11 13  1  0  0  0  0
 12 11  1  0  0  0  0
 14 11  1  0  0  0  0
M  END
$$$$
Title Card Required
 OpenBabel07152211483D

 14 13  0  0  0  0  0  0  0  0999 V2000
   -0.9581    0.9952    0.3463 C   0  0  0  0  0  0  0  0  0  0  0  0
   -0.4547    1.8201   -0.0626 H   0  0  0  0  0  0  0  0  0  0  0  0
   -1.2072    1.0875    1.3682 H   0  0  0  0  0  0  0  0  0  0  0  0
   -0.1758   -0.2794   -0.0813 C   0  0  0  0  0  0  0  0  0  0  0  0
   -0.0853   -1.2107    0.6806 H   0  0  0  0  0  0  0  0  0  0  0  0
   -0.2963   -0.8624   -1.0756 H   0  0  0  0  0  0  0  0  0  0  0  0
    1.7570   -0.0146   -0.0047 Br  0  0  0  0  0  0  0  0  0  0  0  0
   -2.4033    1.0673   -0.3622 C   0  0  0  0  0  0  0  0  0  0  0  0
   -2.2830    1.0269   -1.5233 H   0  0  0  0  0  0  0  0  0  0  0  0
   -2.8398    2.1659   -0.1363 H   0  0  0  0  0  0  0  0  0  0  0  0
   -3.2539   -0.2476    0.1597 C   0  0  0  0  0  0  0  0  0  0  0  0
   -4.0580    0.0148   -0.6211 H   0  0  0  0  0  0  0  0  0  0  0  0
   -3.8491    0.2935    1.0496 H   0  0  0  0  0  0  0  0  0  0  0  0
   -2.6241   -1.3533   -0.0037 O   0  0  0  0  0  1  0  0  0  0  0  0
  1  3  1  0  0  0  0
  2  1  1  0  0  0  0
  4  7  1  0  0  0  0
  4  1  1  0  0  0  0
  4  5  1  0  0  0  0
  6  4  1  0  0  0  0
  8 10  1  0  0  0  0
  8 11  1  0  0  0  0
  8  1  1  0  0  0  0
  9  8  1  0  0  0  0
 11 13  1  0  0  0  0
 12 11  1  0  0  0  0
 14 11  1  0  0  0  0
M  END
$$$$
Title Card Required
 OpenBabel07152211483D

 14 13  0  0  0  0  0  0  0  0999 V2000
   -0.9724    1.0198    0.3492 C   0  0  0  0  0  0  0  0  0  0  0  0
   -0.4266    1.7323   -0.0203 H   0  0  0  0  0  0  0  0  0  0  0  0
   -1.2164    1.0894    1.4178 H   0  0  0  0  0  0  0  0  0  0  0  0
   -0.1765   -0.2944   -0.0861 C   0  0  0  0  0  0  0  0  0  0  0  0
   -0.0709   -1.1409    0.6528 H   0  0  0  0  0  0  0  0  0  0  0  0
   -0.2927   -0.8393   -1.0873 H   0  0  0  0  0  0  0  0  0  0  0  0
    1.7539   -0.0150   -0.0045 Br  0  0  0  0  0  0  0  0  0  0  0  0
   -2.3949    1.0586   -0.3612 C   0  0  0  0  0  0  0  0  0  0  0  0
   -2.3138    1.0535   -1.5652 H   0  0  0  0  0  0  0  0  0  0  0  0
   -2.7856    2.1035   -0.1346 H   0  0  0  0  0  0  0  0  0  0  0  0
   -3.2306   -0.2343    0.1535 C   0  0  0  0  0  0  0  0  0  0  0  0
   -4.1534   -0.0037   -0.6423 H   0  0  0  0  0  0  0  0  0  0  0  0
   -3.8145    0.2456    1.0392 H   0  0  0  0  0  0  0  0  0  0  0  0
   -2.6213   -1.3558    0.0018 O   0  0  0  0  0  1  0  0  0  0  0  0
  1  3  1  0  0  0  0
  2  1  1  0  0  0  0
  4  7  1  0  0  0  0
  4  1  1  0  0  0  0
  4  5  1  0  0  0  0
  6  4  1  0  0  0  0
  8 10  1  0  0  0  0
  8 11  1  0  0  0  0
  8  1  1  0  0  0  0
  9  8  1  0  0  0  0
 11 13  1  0  0  0  0
 12 11  1  0  0  0  0
 14 11  1  0  0  0  0
M  END
$$$$
Title Card Required
 OpenBabel07152211483D

 14 13  0  0  0  0  0  0  0  0999 V2000
   -0.9914    1.0303    0.3499 C   0  0  0  0  0  0  0  0  0  0  0  0
   -0.3326    1.7569   -0.0168 H   0  0  0  0  0  0  0  0  0  0  0  0
   -1.2100    1.0871    1.4657 H   0  0  0  0  0  0  0  0  0  0  0  0
   -0.1780   -0.3106   -0.0882 C   0  0  0  0  0  0  0  0  0  0  0  0
   -0.0944   -1.0622    0.6180 H   0  0  0  0  0  0  0  0  0  0  0  0
   -0.3030   -0.7872   -1.0704 H   0  0  0  0  0  0  0  0  0  0  0  0
    1.7517   -0.0151   -0.0044 Br  0  0  0  0  0  0  0  0  0  0  0  0
   -2.3853    1.0512   -0.3621 C   0  0  0  0  0  0  0  0  0  0  0  0
   -2.3358    1.0708   -1.5471 H   0  0  0  0  0  0  0  0  0  0  0  0
   -2.7443    2.0276   -0.1325 H   0  0  0  0  0  0  0  0  0  0  0  0
   -3.2144   -0.2171    0.1418 C   0  0  0  0  0  0  0  0  0  0  0  0
   -4.2261   -0.0366   -0.6420 H   0  0  0  0  0  0  0  0  0  0  0  0
   -3.7649    0.1764    1.0445 H   0  0  0  0  0  0  0  0  0  0  0  0
   -2.6187   -1.3580    0.0083 O   0  0  0  0  0  1  0  0  0  0  0  0
  1  3  1  0  0  0  0
  2  1  1  0  0  0  0
  4  7  1  0  0  0  0
  4  1  1  0  0  0  0
  4  5  1  0  0  0  0
  6  4  1  0  0  0  0
  8 10  1  0  0  0  0
  8 11  1  0  0  0  0
  8  1  1  0  0  0  0
  9  8  1  0  0  0  0
 11 13  1  0  0  0  0
 12 11  1  0  0  0  0
 14 11  1  0  0  0  0
M  END
$$$$
Title Card Required
 OpenBabel07152211483D

 14 13  0  0  0  0  0  0  0  0999 V2000
   -1.0118    1.0337    0.3491 C   0  0  0  0  0  0  0  0  0  0  0  0
   -0.2198    1.8257   -0.0203 H   0  0  0  0  0  0  0  0  0  0  0  0
   -1.1891    1.0811    1.4908 H   0  0  0  0  0  0  0  0  0  0  0  0
   -0.1809   -0.3233   -0.0900 C   0  0  0  0  0  0  0  0  0  0  0  0
   -0.1443   -1.0185    0.6140 H   0  0  0  0  0  0  0  0  0  0  0  0
   -0.3268   -0.7233   -1.0511 H   0  0  0  0  0  0  0  0  0  0  0  0
    1.7501   -0.0150   -0.0044 Br  0  0  0  0  0  0  0  0  0  0  0  0
   -2.3732    1.0418   -0.3650 C   0  0  0  0  0  0  0  0  0  0  0  0
   -2.3489    1.0800   -1.4891 H   0  0  0  0  0  0  0  0  0  0  0  0
   -2.7290    1.9747   -0.1201 H   0  0  0  0  0  0  0  0  0  0  0  0
   -3.2021   -0.1977    0.1246 C   0  0  0  0  0  0  0  0  0  0  0  0
   -4.2753   -0.0770   -0.6212 H   0  0  0  0  0  0  0  0  0  0  0  0
   -3.7067    0.0966    1.0683 H   0  0  0  0  0  0  0  0  0  0  0  0
   -2.6160   -1.3595    0.0156 O   0  0  0  0  0  1  0  0  0  0  0  0
  1  3  1  0  0  0  0
  2  1  1  0  0  0  0
  4  7  1  0  0  0  0
  4  1  1  0  0  0  0
  4  5  1  0  0  0  0
  6  4  1  0  0  0  0
  8 10  1  0  0  0  0
  8 11  1  0  0  0  0
  8  1  1  0  0  0  0
  9  8  1  0  0  0  0
 11 13  1  0  0  0  0
 12 11  1  0  0  0  0
 14 11  1  0  0  0  0
M  END
$$$$
Title Card Required
 OpenBabel07152211483D

 14 13  0  0  0  0  0  0  0  0999 V2000
   -1.0282    1.0348    0.3454 C   0  0  0  0  0  0  0  0  0  0  0  0
   -0.1430    1.8809   -0.0047 H   0  0  0  0  0  0  0  0  0  0  0  0
   -1.1562    1.0717    1.4844 H   0  0  0  0  0  0  0  0  0  0  0  0
   -0.1854   -0.3287   -0.0914 C   0  0  0  0  0  0  0  0  0  0  0  0
   -0.2175   -1.0403    0.6666 H   0  0  0  0  0  0  0  0  0  0  0  0
   -0.3670   -0.6633   -1.0568 H   0  0  0  0  0  0  0  0  0  0  0  0
    1.7488   -0.0147   -0.0044 Br  0  0  0  0  0  0  0  0  0  0  0  0
   -2.3586    1.0289   -0.3686 C   0  0  0  0  0  0  0  0  0  0  0  0
   -2.3500    1.0805   -1.4177 H   0  0  0  0  0  0  0  0  0  0  0  0
   -2.7518    1.9706   -0.0898 H   0  0  0  0  0  0  0  0  0  0  0  0
   -3.1930   -0.1781    0.1024 C   0  0  0  0  0  0  0  0  0  0  0  0
   -4.2954   -0.1188   -0.5789 H   0  0  0  0  0  0  0  0  0  0  0  0
   -3.6437    0.0164    1.1125 H   0  0  0  0  0  0  0  0  0  0  0  0
   -2.6128   -1.3602    0.0237 O   0  0  0  0  0  1  0  0  0  0  0  0
  1  3  1  0  0  0  0
  2  1  1  0  0  0  0
  4  7  1  0  0  0  0
  4  1  1  0  0  0  0
  4  5  1  0  0  0  0
  6  4  1  0  0  0  0
  8 10  1  0  0  0  0
  8 11  1  0  0  0  0
  8  1  1  0  0  0  0
  9  8  1  0  0  0  0
 11 13  1  0  0  0  0
 12 11  1  0  0  0  0
 14 11  1  0  0  0  0
M  END
$$$$
Title Card Required
 OpenBabel07152211483D

 14 13  0  0  0  0  0  0  0  0999 V2000
   -1.0366    1.0348    0.3389 C   0  0  0  0  0  0  0  0  0  0  0  0
   -0.1296    1.9006    0.0331 H   0  0  0  0  0  0  0  0  0  0  0  0
   -1.1180    1.0604    1.4499 H   0  0  0  0  0  0  0  0  0  0  0  0
   -0.1914   -0.3280   -0.0889 C   0  0  0  0  0  0  0  0  0  0  0  0
   -0.3092   -1.0979    0.7386 H   0  0  0  0  0  0  0  0  0  0  0  0
   -0.4217   -0.6179   -1.0967 H   0  0  0  0  0  0  0  0  0  0  0  0
    1.7479   -0.0142   -0.0045 Br  0  0  0  0  0  0  0  0  0  0  0  0
   -2.3436    1.0154   -0.3687 C   0  0  0  0  0  0  0  0  0  0  0  0
   -2.3366    1.0745   -1.3848 H   0  0  0  0  0  0  0  0  0  0  0  0
   -2.8041    1.9968   -0.0485 H   0  0  0  0  0  0  0  0  0  0  0  0
   -3.1878   -0.1616    0.0781 C   0  0  0  0  0  0  0  0  0  0  0  0
   -4.2809   -0.1535   -0.5185 H   0  0  0  0  0  0  0  0  0  0  0  0
   -3.5781   -0.0503    1.1660 H   0  0  0  0  0  0  0  0  0  0  0  0
   -2.6091   -1.3597    0.0314 O   0  0  0  0  0  1  0  0  0  0  0  0
  1  3  1  0  0  0  0
  2  1  1  0  0  0  0
  4  7  1  0  0  0  0
  4  1  1  0  0  0  0
  4  5  1  0  0  0  0
  6  4  1  0  0  0  0
  8 10  1  0  0  0  0
  8 11  1  0  0  0  0
  8  1  1  0  0  0  0
  9  8  1  0  0  0  0
 11 13  1  0  0  0  0
 12 11  1  0  0  0  0
 14 11  1  0  0  0  0
M  END
$$$$
Title Card Required
 OpenBabel07152211483D

 14 13  0  0  0  0  0  0  0  0999 V2000
   -1.0353    1.0335    0.3295 C   0  0  0  0  0  0  0  0  0  0  0  0
   -0.1833    1.8832    0.0860 H   0  0  0  0  0  0  0  0  0  0  0  0
   -1.0822    1.0480    1.4039 H   0  0  0  0  0  0  0  0  0  0  0  0
   -0.2000   -0.3254   -0.0804 C   0  0  0  0  0  0  0  0  0  0  0  0
   -0.4098   -1.1436    0.7755 H   0  0  0  0  0  0  0  0  0  0  0  0
   -0.4819   -0.5833   -1.1441 H   0  0  0  0  0  0  0  0  0  0  0  0
    1.7472   -0.0137   -0.0046 Br  0  0  0  0  0  0  0  0  0  0  0  0
   -2.3307    1.0054   -0.3624 C   0  0  0  0  0  0  0  0  0  0  0  0
   -2.3082    1.0660   -1.4206 H   0  0  0  0  0  0  0  0  0  0  0  0
   -2.8644    2.0139   -0.0116 H   0  0  0  0  0  0  0  0  0  0  0  0
   -3.1867   -0.1502    0.0550 C   0  0  0  0  0  0  0  0  0  0  0  0
   -4.2335   -0.1744   -0.4467 H   0  0  0  0  0  0  0  0  0  0  0  0
   -3.5088   -0.0919    1.2110 H   0  0  0  0  0  0  0  0  0  0  0  0
   -2.6045   -1.3582    0.0381 O   0  0  0  0  0  1  0  0  0  0  0  0
  1  3  1  0  0  0  0
  2  1  1  0  0  0  0
  4  7  1  0  0  0  0
  4  1  1  0  0  0  0
  4  5  1  0  0  0  0
  6  4  1  0  0  0  0
  8 10  1  0  0  0  0
  8 11  1  0  0  0  0
  8  1  1  0  0  0  0
  9  8  1  0  0  0  0
 11 13  1  0  0  0  0
 12 11  1  0  0  0  0
 14 11  1  0  0  0  0
M  END
$$$$
Title Card Required
 OpenBabel07152211483D

 14 13  0  0  0  0  0  0  0  0999 V2000
   -1.0242    1.0305    0.3172 C   0  0  0  0  0  0  0  0  0  0  0  0
   -0.2914    1.8391    0.1411 H   0  0  0  0  0  0  0  0  0  0  0  0
   -1.0568    1.0342    1.3746 H   0  0  0  0  0  0  0  0  0  0  0  0
   -0.2127   -0.3234   -0.0679 C   0  0  0  0  0  0  0  0  0  0  0  0
   -0.5055   -1.1540    0.7527 H   0  0  0  0  0  0  0  0  0  0  0  0
   -0.5338   -0.5553   -1.1632 H   0  0  0  0  0  0  0  0  0  0  0  0
    1.7466   -0.0132   -0.0048 Br  0  0  0  0  0  0  0  0  0  0  0  0
   -2.3224    1.0017   -0.3524 C   0  0  0  0  0  0  0  0  0  0  0  0
   -2.2675    1.0569   -1.4910 H   0  0  0  0  0  0  0  0  0  0  0  0
   -2.9129    1.9974    0.0082 H   0  0  0  0  0  0  0  0  0  0  0  0
   -3.1880   -0.1455    0.0373 C   0  0  0  0  0  0  0  0  0  0  0  0
   -4.1735   -0.1771   -0.3790 H   0  0  0  0  0  0  0  0  0  0  0  0
   -3.4390   -0.0987    1.2331 H   0  0  0  0  0  0  0  0  0  0  0  0
   -2.5990   -1.3562    0.0430 O   0  0  0  0  0  1  0  0  0  0  0  0
  1  3  1  0  0  0  0
  2  1  1  0  0  0  0
  4  7  1  0  0  0  0
  4  1  1  0  0  0  0
  4  5  1  0  0  0  0
  6  4  1  0  0  0  0
  8 10  1  0  0  0  0
  8 11  1  0  0  0  0
  8  1  1  0  0  0  0
  9  8  1  0  0  0  0
 11 14  1  0  0  0  0
 11 13  1  0  0  0  0
 12 11  1  0  0  0  0
M  END
$$$$
Title Card Required
 OpenBabel07152211483D

 14 13  0  0  0  0  0  0  0  0999 V2000
   -1.0058    1.0225    0.3030 C   0  0  0  0  0  0  0  0  0  0  0  0
   -0.4142    1.8072    0.1802 H   0  0  0  0  0  0  0  0  0  0  0  0
   -1.0472    1.0166    1.3804 H   0  0  0  0  0  0  0  0  0  0  0  0
   -0.2307   -0.3220   -0.0534 C   0  0  0  0  0  0  0  0  0  0  0  0
   -0.5886   -1.1287    0.6721 H   0  0  0  0  0  0  0  0  0  0  0  0
   -0.5678   -0.5328   -1.1365 H   0  0  0  0  0  0  0  0  0  0  0  0
    1.7461   -0.0126   -0.0050 Br  0  0  0  0  0  0  0  0  0  0  0  0
   -2.3194    1.0052   -0.3435 C   0  0  0  0  0  0  0  0  0  0  0  0
   -2.2185    1.0475   -1.5425 H   0  0  0  0  0  0  0  0  0  0  0  0
   -2.9391    1.9432    0.0053 H   0  0  0  0  0  0  0  0  0  0  0  0
   -3.1873   -0.1478    0.0283 C   0  0  0  0  0  0  0  0  0  0  0  0
   -4.1464   -0.1611   -0.3379 H   0  0  0  0  0  0  0  0  0  0  0  0
   -3.3725   -0.0648    1.2267 H   0  0  0  0  0  0  0  0  0  0  0  0
   -2.5923   -1.3542    0.0455 O   0  0  0  0  0  1  0  0  0  0  0  0
  1  3  1  0  0  0  0
  2  1  1  0  0  0  0
  4  7  1  0  0  0  0
  4  1  1  0  0  0  0
  4  5  1  0  0  0  0
  6  4  1  0  0  0  0
  8 10  1  0  0  0  0
  8 11  1  0  0  0  0
  8  1  1  0  0  0  0
  9  8  1  0  0  0  0
 11 14  1  0  0  0  0
 11 13  1  0  0  0  0
 12 11  1  0  0  0  0
M  END
$$$$
Title Card Required
 OpenBabel07152211483D

 14 13  0  0  0  0  0  0  0  0999 V2000
   -0.9878    1.0053    0.2914 C   0  0  0  0  0  0  0  0  0  0  0  0
   -0.4784    1.8590    0.1836 H   0  0  0  0  0  0  0  0  0  0  0  0
   -1.0550    0.9955    1.4093 H   0  0  0  0  0  0  0  0  0  0  0  0
   -0.2517   -0.3195   -0.0406 C   0  0  0  0  0  0  0  0  0  0  0  0
   -0.6528   -1.0904    0.5675 H   0  0  0  0  0  0  0  0  0  0  0  0
   -0.5787   -0.5199   -1.0757 H   0  0  0  0  0  0  0  0  0  0  0  0
    1.7456   -0.0120   -0.0051 Br  0  0  0  0  0  0  0  0  0  0  0  0
   -2.3213    1.0138   -0.3394 C   0  0  0  0  0  0  0  0  0  0  0  0
   -2.1714    1.0397   -1.5444 H   0  0  0  0  0  0  0  0  0  0  0  0
   -2.9414    1.8707   -0.0171 H   0  0  0  0  0  0  0  0  0  0  0  0
   -3.1811   -0.1559    0.0299 C   0  0  0  0  0  0  0  0  0  0  0  0
   -4.1855   -0.1305   -0.3391 H   0  0  0  0  0  0  0  0  0  0  0  0
   -3.3198    0.0041    1.1955 H   0  0  0  0  0  0  0  0  0  0  0  0
   -2.5854   -1.3526    0.0453 O   0  0  0  0  0  1  0  0  0  0  0  0
  1  3  1  0  0  0  0
  2  1  1  0  0  0  0
  4  7  1  0  0  0  0
  4  1  1  0  0  0  0
  4  5  1  0  0  0  0
  6  4  1  0  0  0  0
  8 10  1  0  0  0  0
  8 11  1  0  0  0  0
  8  1  1  0  0  0  0
  9  8  1  0  0  0  0
 11 14  1  0  0  0  0
 11 13  1  0  0  0  0
 12 11  1  0  0  0  0
M  END
$$$$
Title Card Required
 OpenBabel07152211483D

 14 13  0  0  0  0  0  0  0  0999 V2000
   -0.9728    0.9835    0.2853 C   0  0  0  0  0  0  0  0  0  0  0  0
   -0.4894    1.9677    0.1604 H   0  0  0  0  0  0  0  0  0  0  0  0
   -1.0729    0.9747    1.4322 H   0  0  0  0  0  0  0  0  0  0  0  0
   -0.2712   -0.3134   -0.0317 C   0  0  0  0  0  0  0  0  0  0  0  0
   -0.7068   -1.0767    0.4867 H   0  0  0  0  0  0  0  0  0  0  0  0
   -0.5737   -0.5185   -1.0185 H   0  0  0  0  0  0  0  0  0  0  0  0
    1.7451   -0.0116   -0.0052 Br  0  0  0  0  0  0  0  0  0  0  0  0
   -2.3252    1.0231   -0.3405 C   0  0  0  0  0  0  0  0  0  0  0  0
   -2.1345    1.0353   -1.5052 H   0  0  0  0  0  0  0  0  0  0  0  0
   -2.9362    1.8154   -0.0447 H   0  0  0  0  0  0  0  0  0  0  0  0
   -3.1722   -0.1671    0.0384 C   0  0  0  0  0  0  0  0  0  0  0  0
   -4.2507   -0.0937   -0.3634 H   0  0  0  0  0  0  0  0  0  0  0  0
   -3.2861    0.0889    1.1550 H   0  0  0  0  0  0  0  0  0  0  0  0
   -2.5789   -1.3519    0.0432 O   0  0  0  0  0  1  0  0  0  0  0  0
  1  3  1  0  0  0  0
  2  1  1  0  0  0  0
  4  7  1  0  0  0  0
  4  1  1  0  0  0  0
  4  5  1  0  0  0  0
  6  4  1  0  0  0  0
  8 10  1  0  0  0  0
  8 11  1  0  0  0  0
  8  1  1  0  0  0  0
  9  8  1  0  0  0  0
 11 14  1  0  0  0  0
 11 13  1  0  0  0  0
 12 11  1  0  0  0  0
M  END
$$$$
Title Card Required
 OpenBabel07152211483D

 14 13  0  0  0  0  0  0  0  0999 V2000
   -0.9573    0.9613    0.2842 C   0  0  0  0  0  0  0  0  0  0  0  0
   -0.4874    2.0758    0.1231 H   0  0  0  0  0  0  0  0  0  0  0  0
   -1.0971    0.9544    1.4368 H   0  0  0  0  0  0  0  0  0  0  0  0
   -0.2896   -0.3016   -0.0248 C   0  0  0  0  0  0  0  0  0  0  0  0
   -0.7705   -1.1091    0.4422 H   0  0  0  0  0  0  0  0  0  0  0  0
   -0.5603   -0.5306   -0.9929 H   0  0  0  0  0  0  0  0  0  0  0  0
    1.7444   -0.0112   -0.0053 Br  0  0  0  0  0  0  0  0  0  0  0  0
   -2.3288    1.0305   -0.3472 C   0  0  0  0  0  0  0  0  0  0  0  0
   -2.1043    1.0349   -1.4351 H   0  0  0  0  0  0  0  0  0  0  0  0
   -2.9442    1.8016   -0.0683 H   0  0  0  0  0  0  0  0  0  0  0  0
   -3.1625   -0.1813    0.0519 C   0  0  0  0  0  0  0  0  0  0  0  0
   -4.3092   -0.0517   -0.3950 H   0  0  0  0  0  0  0  0  0  0  0  0
   -3.2689    0.1907    1.1124 H   0  0  0  0  0  0  0  0  0  0  0  0
   -2.5723   -1.3517    0.0392 O   0  0  0  0  0  1  0  0  0  0  0  0
  1  3  1  0  0  0  0
  2  1  1  0  0  0  0
  4  7  1  0  0  0  0
  4  1  1  0  0  0  0
  4  5  1  0  0  0  0
  6  4  1  0  0  0  0
  8 10  1  0  0  0  0
  8 11  1  0  0  0  0
  8  1  1  0  0  0  0
  9  8  1  0  0  0  0
 11 13  1  0  0  0  0
 12 11  1  0  0  0  0
 14 11  1  0  0  0  0
M  END
$$$$
Title Card Required
 OpenBabel07152211483D

 14 13  0  0  0  0  0  0  0  0999 V2000
   -0.9415    0.9451    0.2898 C   0  0  0  0  0  0  0  0  0  0  0  0
   -0.4910    2.1272    0.0806 H   0  0  0  0  0  0  0  0  0  0  0  0
   -1.1233    0.9376    1.4140 H   0  0  0  0  0  0  0  0  0  0  0  0
   -0.3059   -0.2854   -0.0188 C   0  0  0  0  0  0  0  0  0  0  0  0
   -0.8401   -1.1802    0.4339 H   0  0  0  0  0  0  0  0  0  0  0  0
   -0.5395   -0.5589   -1.0272 H   0  0  0  0  0  0  0  0  0  0  0  0
    1.7435   -0.0110   -0.0054 Br  0  0  0  0  0  0  0  0  0  0  0  0
   -2.3307    1.0336   -0.3589 C   0  0  0  0  0  0  0  0  0  0  0  0
   -2.0789    1.0404   -1.3639 H   0  0  0  0  0  0  0  0  0  0  0  0
   -2.9768    1.8514   -0.0818 H   0  0  0  0  0  0  0  0  0  0  0  0
   -3.1534   -0.1972    0.0694 C   0  0  0  0  0  0  0  0  0  0  0  0
   -4.3332   -0.0103   -0.4225 H   0  0  0  0  0  0  0  0  0  0  0  0
   -3.2748    0.3025    1.0807 H   0  0  0  0  0  0  0  0  0  0  0  0
   -2.5655   -1.3523    0.0332 O   0  0  0  0  0  1  0  0  0  0  0  0
  1  3  1  0  0  0  0
  2  1  1  0  0  0  0
  4  7  1  0  0  0  0
  4  1  1  0  0  0  0
  4  5  1  0  0  0  0
  6  4  1  0  0  0  0
  8 10  1  0  0  0  0
  8 11  1  0  0  0  0
  8  1  1  0  0  0  0
  9  8  1  0  0  0  0
 11 13  1  0  0  0  0
 12 11  1  0  0  0  0
 14 11  1  0  0  0  0
M  END
$$$$
Title Card Required
 OpenBabel07152211483D

 14 13  0  0  0  0  0  0  0  0999 V2000
   -0.9280    0.9425    0.3038 C   0  0  0  0  0  0  0  0  0  0  0  0
   -0.5040    2.0721    0.0415 H   0  0  0  0  0  0  0  0  0  0  0  0
   -1.1466    0.9306    1.3683 H   0  0  0  0  0  0  0  0  0  0  0  0
   -0.3205   -0.2724   -0.0157 C   0  0  0  0  0  0  0  0  0  0  0  0
   -0.8903   -1.2401    0.4421 H   0  0  0  0  0  0  0  0  0  0  0  0
   -0.4994   -0.5934   -1.1036 H   0  0  0  0  0  0  0  0  0  0  0  0
    1.7421   -0.0109   -0.0053 Br  0  0  0  0  0  0  0  0  0  0  0  0
   -2.3325    1.0334   -0.3711 C   0  0  0  0  0  0  0  0  0  0  0  0
   -2.0482    1.0543   -1.3681 H   0  0  0  0  0  0  0  0  0  0  0  0
   -3.0088    1.9452   -0.0954 H   0  0  0  0  0  0  0  0  0  0  0  0
   -3.1464   -0.2118    0.0909 C   0  0  0  0  0  0  0  0  0  0  0  0
   -4.2939    0.0186   -0.4343 H   0  0  0  0  0  0  0  0  0  0  0  0
   -3.3143    0.4035    1.0731 H   0  0  0  0  0  0  0  0  0  0  0  0
   -2.5589   -1.3545    0.0252 O   0  0  0  0  0  1  0  0  0  0  0  0
  1  3  1  0  0  0  0
  2  1  1  0  0  0  0
  4  7  1  0  0  0  0
  4  1  1  0  0  0  0
  4  5  1  0  0  0  0
  6  4  1  0  0  0  0
  8 10  1  0  0  0  0
  8 11  1  0  0  0  0
  8  1  1  0  0  0  0
  9  8  1  0  0  0  0
 11 13  1  0  0  0  0
 12 11  1  0  0  0  0
 14 11  1  0  0  0  0
M  END
$$$$
Title Card Required
 OpenBabel07152211483D

 14 13  0  0  0  0  0  0  0  0999 V2000
   -0.9229    0.9564    0.3199 C   0  0  0  0  0  0  0  0  0  0  0  0
   -0.5127    1.9304    0.0207 H   0  0  0  0  0  0  0  0  0  0  0  0
   -1.1624    0.9385    1.3475 H   0  0  0  0  0  0  0  0  0  0  0  0
   -0.3300   -0.2731   -0.0207 C   0  0  0  0  0  0  0  0  0  0  0  0
   -0.8914   -1.2333    0.4455 H   0  0  0  0  0  0  0  0  0  0  0  0
   -0.4448   -0.6040   -1.1440 H   0  0  0  0  0  0  0  0  0  0  0  0
    1.7407   -0.0110   -0.0052 Br  0  0  0  0  0  0  0  0  0  0  0  0
   -2.3360    1.0331   -0.3787 C   0  0  0  0  0  0  0  0  0  0  0  0
   -2.0209    1.0713   -1.4565 H   0  0  0  0  0  0  0  0  0  0  0  0
   -2.9949    2.0066   -0.1213 H   0  0  0  0  0  0  0  0  0  0  0  0
   -3.1444   -0.2170    0.1102 C   0  0  0  0  0  0  0  0  0  0  0  0
   -4.1992    0.0164   -0.4237 H   0  0  0  0  0  0  0  0  0  0  0  0
   -3.3725    0.4424    1.0882 H   0  0  0  0  0  0  0  0  0  0  0  0
   -2.5541   -1.3584    0.0179 O   0  0  0  0  0  1  0  0  0  0  0  0
  1  3  1  0  0  0  0
  2  1  1  0  0  0  0
  4  7  1  0  0  0  0
  4  1  1  0  0  0  0
  4  5  1  0  0  0  0
  6  4  1  0  0  0  0
  8 10  1  0  0  0  0
  8 11  1  0  0  0  0
  8  1  1  0  0  0  0
  9  8  1  0  0  0  0
 11 13  1  0  0  0  0
 12 11  1  0  0  0  0
 14 11  1  0  0  0  0
M  END
$$$$
Title Card Required
 OpenBabel07152211483D

 14 13  0  0  0  0  0  0  0  0999 V2000
   -0.9258    0.9754    0.3335 C   0  0  0  0  0  0  0  0  0  0  0  0
   -0.4936    1.7984    0.0050 H   0  0  0  0  0  0  0  0  0  0  0  0
   -1.1746    0.9566    1.3724 H   0  0  0  0  0  0  0  0  0  0  0  0
   -0.3354   -0.2838   -0.0320 C   0  0  0  0  0  0  0  0  0  0  0  0
   -0.8557   -1.1802    0.4438 H   0  0  0  0  0  0  0  0  0  0  0  0
   -0.3904   -0.5890   -1.1352 H   0  0  0  0  0  0  0  0  0  0  0  0
    1.7394   -0.0112   -0.0049 Br  0  0  0  0  0  0  0  0  0  0  0  0
   -2.3390    1.0344   -0.3859 C   0  0  0  0  0  0  0  0  0  0  0  0
   -2.0136    1.0840   -1.5372 H   0  0  0  0  0  0  0  0  0  0  0  0
   -2.9431    2.0204   -0.1561 H   0  0  0  0  0  0  0  0  0  0  0  0
   -3.1458   -0.2136    0.1259 C   0  0  0  0  0  0  0  0  0  0  0  0
   -4.0939   -0.0103   -0.4047 H   0  0  0  0  0  0  0  0  0  0  0  0
   -3.4285    0.4249    1.1116 H   0  0  0  0  0  0  0  0  0  0  0  0
   -2.5510   -1.3630    0.0121 O   0  0  0  0  0  1  0  0  0  0  0  0
  1  3  1  0  0  0  0
  2  1  1  0  0  0  0
  4  7  1  0  0  0  0
  4  1  1  0  0  0  0
  4  5  1  0  0  0  0
  6  4  1  0  0  0  0
  8 10  1  0  0  0  0
  8 11  1  0  0  0  0
  8  1  1  0  0  0  0
  9  8  1  0  0  0  0
 11 13  1  0  0  0  0
 12 11  1  0  0  0  0
 14 11  1  0  0  0  0
M  END
$$$$
Title Card Required
 OpenBabel07152211483D

 14 13  0  0  0  0  0  0  0  0999 V2000
   -0.9375    0.9906    0.3471 C   0  0  0  0  0  0  0  0  0  0  0  0
   -0.4152    1.7504   -0.0324 H   0  0  0  0  0  0  0  0  0  0  0  0
   -1.1816    0.9839    1.4247 H   0  0  0  0  0  0  0  0  0  0  0  0
   -0.3380   -0.2991   -0.0475 C   0  0  0  0  0  0  0  0  0  0  0  0
   -0.7969   -1.1138    0.4474 H   0  0  0  0  0  0  0  0  0  0  0  0
   -0.3407   -0.5570   -1.0994 H   0  0  0  0  0  0  0  0  0  0  0  0
    1.7381   -0.0116   -0.0046 Br  0  0  0  0  0  0  0  0  0  0  0  0
   -2.3399    1.0372   -0.3954 C   0  0  0  0  0  0  0  0  0  0  0  0
   -2.0295    1.0890   -1.5761 H   0  0  0  0  0  0  0  0  0  0  0  0
   -2.8689    2.0036   -0.1957 H   0  0  0  0  0  0  0  0  0  0  0  0
   -3.1472   -0.2046    0.1403 C   0  0  0  0  0  0  0  0  0  0  0  0
   -4.0155   -0.0519   -0.3970 H   0  0  0  0  0  0  0  0  0  0  0  0
   -3.4777    0.3663    1.1387 H   0  0  0  0  0  0  0  0  0  0  0  0
   -2.5489   -1.3680    0.0074 O   0  0  0  0  0  1  0  0  0  0  0  0
  1  3  1  0  0  0  0
  2  1  1  0  0  0  0
  4  7  1  0  0  0  0
  4  1  1  0  0  0  0
  4  5  1  0  0  0  0
  6  4  1  0  0  0  0
  8 10  1  0  0  0  0
  8 11  1  0  0  0  0
  8  1  1  0  0  0  0
  9  8  1  0  0  0  0
 11 13  1  0  0  0  0
 12 11  1  0  0  0  0
 14 11  1  0  0  0  0
M  END
$$$$
Title Card Required
 OpenBabel07152211483D

 14 13  0  0  0  0  0  0  0  0999 V2000
   -0.9552    1.0006    0.3600 C   0  0  0  0  0  0  0  0  0  0  0  0
   -0.2950    1.7732   -0.0824 H   0  0  0  0  0  0  0  0  0  0  0  0
   -1.1781    1.0177    1.4735 H   0  0  0  0  0  0  0  0  0  0  0  0
   -0.3375   -0.3126   -0.0638 C   0  0  0  0  0  0  0  0  0  0  0  0
   -0.7360   -1.0776    0.4732 H   0  0  0  0  0  0  0  0  0  0  0  0
   -0.3030   -0.5216   -1.0728 H   0  0  0  0  0  0  0  0  0  0  0  0
    1.7369   -0.0120   -0.0041 Br  0  0  0  0  0  0  0  0  0  0  0  0
   -2.3378    1.0400   -0.4065 C   0  0  0  0  0  0  0  0  0  0  0  0
   -2.0642    1.0832   -1.5686 H   0  0  0  0  0  0  0  0  0  0  0  0
   -2.7959    1.9819   -0.2316 H   0  0  0  0  0  0  0  0  0  0  0  0
   -3.1459   -0.1931    0.1538 C   0  0  0  0  0  0  0  0  0  0  0  0
   -4.0028   -0.0958   -0.4204 H   0  0  0  0  0  0  0  0  0  0  0  0
   -3.5145    0.2825    1.1652 H   0  0  0  0  0  0  0  0  0  0  0  0
   -2.5476   -1.3725    0.0041 O   0  0  0  0  0  1  0  0  0  0  0  0
  1  3  1  0  0  0  0
  2  1  1  0  0  0  0
  4  7  1  0  0  0  0
  4  1  1  0  0  0  0
  4  5  1  0  0  0  0
  6  4  1  0  0  0  0
  8 10  1  0  0  0  0
  8 11  1  0  0  0  0
  8  1  1  0  0  0  0
  9  8  1  0  0  0  0
 11 13  1  0  0  0  0
 12 11  1  0  0  0  0
 14 11  1  0  0  0  0
M  END
$$$$
Title Card Required
 OpenBabel07152211483D

 14 13  0  0  0  0  0  0  0  0999 V2000
   -0.9744    1.0099    0.3707 C   0  0  0  0  0  0  0  0  0  0  0  0
   -0.1791    1.8047   -0.1163 H   0  0  0  0  0  0  0  0  0  0  0  0
   -1.1627    1.0569    1.5030 H   0  0  0  0  0  0  0  0  0  0  0  0
   -0.3341   -0.3213   -0.0787 C   0  0  0  0  0  0  0  0  0  0  0  0
   -0.6813   -1.0930    0.5313 H   0  0  0  0  0  0  0  0  0  0  0  0
   -0.2776   -0.4924   -1.0874 H   0  0  0  0  0  0  0  0  0  0  0  0
    1.7357   -0.0125   -0.0035 Br  0  0  0  0  0  0  0  0  0  0  0  0
   -2.3320    1.0414   -0.4184 C   0  0  0  0  0  0  0  0  0  0  0  0
   -2.1122    1.0650   -1.5254 H   0  0  0  0  0  0  0  0  0  0  0  0
   -2.7403    1.9838   -0.2587 H   0  0  0  0  0  0  0  0  0  0  0  0
   -3.1422   -0.1803    0.1667 C   0  0  0  0  0  0  0  0  0  0  0  0
   -4.0475   -0.1392   -0.4707 H   0  0  0  0  0  0  0  0  0  0  0  0
   -3.5402    0.1820    1.1898 H   0  0  0  0  0  0  0  0  0  0  0  0
   -2.5466   -1.3764    0.0020 O   0  0  0  0  0  1  0  0  0  0  0  0
  1  3  1  0  0  0  0
  2  1  1  0  0  0  0
  4  7  1  0  0  0  0
  4  1  1  0  0  0  0
  4  5  1  0  0  0  0
  6  4  1  0  0  0  0
  8 10  1  0  0  0  0
  8 11  1  0  0  0  0
  8  1  1  0  0  0  0
  9  8  1  0  0  0  0
 11 13  1  0  0  0  0
 12 11  1  0  0  0  0
 14 11  1  0  0  0  0
M  END
$$$$
Title Card Required
 OpenBabel07152211483D

 14 13  0  0  0  0  0  0  0  0999 V2000
   -0.9920    1.0206    0.3774 C   0  0  0  0  0  0  0  0  0  0  0  0
   -0.1014    1.8134   -0.1157 H   0  0  0  0  0  0  0  0  0  0  0  0
   -1.1361    1.1001    1.5060 H   0  0  0  0  0  0  0  0  0  0  0  0
   -0.3289   -0.3259   -0.0902 C   0  0  0  0  0  0  0  0  0  0  0  0
   -0.6241   -1.1449    0.6061 H   0  0  0  0  0  0  0  0  0  0  0  0
   -0.2667   -0.4731   -1.1485 H   0  0  0  0  0  0  0  0  0  0  0  0
    1.7347   -0.0130   -0.0028 Br  0  0  0  0  0  0  0  0  0  0  0  0
   -2.3227    1.0403   -0.4291 C   0  0  0  0  0  0  0  0  0  0  0  0
   -2.1654    1.0312   -1.4692 H   0  0  0  0  0  0  0  0  0  0  0  0
   -2.7110    2.0246   -0.2740 H   0  0  0  0  0  0  0  0  0  0  0  0
   -3.1389   -0.1677    0.1767 C   0  0  0  0  0  0  0  0  0  0  0  0
   -4.1156   -0.1799   -0.5244 H   0  0  0  0  0  0  0  0  0  0  0  0
   -3.5556    0.0719    1.2116 H   0  0  0  0  0  0  0  0  0  0  0  0
   -2.5457   -1.3790    0.0008 O   0  0  0  0  0  1  0  0  0  0  0  0
  1  3  1  0  0  0  0
  2  1  1  0  0  0  0
  4  7  1  0  0  0  0
  4  1  1  0  0  0  0
  4  5  1  0  0  0  0
  6  4  1  0  0  0  0
  8 10  1  0  0  0  0
  8 11  1  0  0  0  0
  8  1  1  0  0  0  0
  9  8  1  0  0  0  0
 11 13  1  0  0  0  0
 12 11  1  0  0  0  0
 14 11  1  0  0  0  0
M  END
$$$$
Title Card Required
 OpenBabel07152211483D

 14 13  0  0  0  0  0  0  0  0999 V2000
   -1.0063    1.0339    0.3783 C   0  0  0  0  0  0  0  0  0  0  0  0
   -0.0837    1.7884   -0.0693 H   0  0  0  0  0  0  0  0  0  0  0  0
   -1.0979    1.1495    1.4783 H   0  0  0  0  0  0  0  0  0  0  0  0
   -0.3222   -0.3296   -0.0981 C   0  0  0  0  0  0  0  0  0  0  0  0
   -0.5446   -1.2009    0.6650 H   0  0  0  0  0  0  0  0  0  0  0  0
   -0.2770   -0.4617   -1.2295 H   0  0  0  0  0  0  0  0  0  0  0  0
    1.7337   -0.0138   -0.0018 Br  0  0  0  0  0  0  0  0  0  0  0  0
   -2.3109    1.0387   -0.4333 C   0  0  0  0  0  0  0  0  0  0  0  0
   -2.2169    0.9714   -1.4466 H   0  0  0  0  0  0  0  0  0  0  0  0
   -2.7050    2.0957   -0.2804 H   0  0  0  0  0  0  0  0  0  0  0  0
   -3.1387   -0.1568    0.1819 C   0  0  0  0  0  0  0  0  0  0  0  0
   -4.1798   -0.2130   -0.5586 H   0  0  0  0  0  0  0  0  0  0  0  0
   -3.5613   -0.0482    1.2309 H   0  0  0  0  0  0  0  0  0  0  0  0
   -2.5447   -1.3794    0.0008 O   0  0  0  0  0  1  0  0  0  0  0  0
  1  3  1  0  0  0  0
  2  1  1  0  0  0  0
  4  7  1  0  0  0  0
  4  1  1  0  0  0  0
  4  5  1  0  0  0  0
  6  4  1  0  0  0  0
  8 10  1  0  0  0  0
  8 11  1  0  0  0  0
  8  1  1  0  0  0  0
  9  8  1  0  0  0  0
 11 13  1  0  0  0  0
 12 11  1  0  0  0  0
 14 11  1  0  0  0  0
M  END
$$$$
Title Card Required
 OpenBabel07152211483D

 14 13  0  0  0  0  0  0  0  0999 V2000
   -1.0124    1.0470    0.3699 C   0  0  0  0  0  0  0  0  0  0  0  0
   -0.1490    1.7320    0.0197 H   0  0  0  0  0  0  0  0  0  0  0  0
   -1.0595    1.1968    1.4350 H   0  0  0  0  0  0  0  0  0  0  0  0
   -0.3151   -0.3346   -0.1020 C   0  0  0  0  0  0  0  0  0  0  0  0
   -0.4450   -1.2190    0.6605 H   0  0  0  0  0  0  0  0  0  0  0  0
   -0.3152   -0.4585   -1.2662 H   0  0  0  0  0  0  0  0  0  0  0  0
    1.7329   -0.0146   -0.0007 Br  0  0  0  0  0  0  0  0  0  0  0  0
   -2.3007    1.0412   -0.4247 C   0  0  0  0  0  0  0  0  0  0  0  0
   -2.2525    0.8848   -1.5022 H   0  0  0  0  0  0  0  0  0  0  0  0
   -2.7126    2.1473   -0.2860 H   0  0  0  0  0  0  0  0  0  0  0  0
   -3.1441   -0.1523    0.1794 C   0  0  0  0  0  0  0  0  0  0  0  0
   -4.2093   -0.2223   -0.5486 H   0  0  0  0  0  0  0  0  0  0  0  0
   -3.5553   -0.1494    1.2417 H   0  0  0  0  0  0  0  0  0  0  0  0
   -2.5433   -1.3760    0.0018 O   0  0  0  0  0  1  0  0  0  0  0  0
  1  3  1  0  0  0  0
  2  1  1  0  0  0  0
  4  7  1  0  0  0  0
  4  1  1  0  0  0  0
  4  5  1  0  0  0  0
  6  4  1  0  0  0  0
  8 10  1  0  0  0  0
  8 11  1  0  0  0  0
  8  1  1  0  0  0  0
  9  8  1  0  0  0  0
 11 13  1  0  0  0  0
 12 11  1  0  0  0  0
 14 11  1  0  0  0  0
M  END
$$$$
Title Card Required
 OpenBabel07152211483D

 14 13  0  0  0  0  0  0  0  0999 V2000
   -1.0106    1.0548    0.3543 C   0  0  0  0  0  0  0  0  0  0  0  0
   -0.2510    1.6844    0.1075 H   0  0  0  0  0  0  0  0  0  0  0  0
   -1.0369    1.2309    1.4115 H   0  0  0  0  0  0  0  0  0  0  0  0
   -0.3087   -0.3400   -0.1031 C   0  0  0  0  0  0  0  0  0  0  0  0
   -0.3521   -1.1972    0.5975 H   0  0  0  0  0  0  0  0  0  0  0  0
   -0.3694   -0.4637   -1.2354 H   0  0  0  0  0  0  0  0  0  0  0  0
    1.7325   -0.0153    0.0005 Br  0  0  0  0  0  0  0  0  0  0  0  0
   -2.2954    1.0485   -0.4101 C   0  0  0  0  0  0  0  0  0  0  0  0
   -2.2700    0.7984   -1.5643 H   0  0  0  0  0  0  0  0  0  0  0  0
   -2.7212    2.1452   -0.2971 H   0  0  0  0  0  0  0  0  0  0  0  0
   -3.1539   -0.1560    0.1714 C   0  0  0  0  0  0  0  0  0  0  0  0
   -4.1971   -0.2036   -0.4997 H   0  0  0  0  0  0  0  0  0  0  0  0
   -3.5407   -0.2049    1.2413 H   0  0  0  0  0  0  0  0  0  0  0  0
   -2.5415   -1.3692    0.0030 O   0  0  0  0  0  1  0  0  0  0  0  0
  1  3  1  0  0  0  0
  2  1  1  0  0  0  0
  4  7  1  0  0  0  0
  4  1  1  0  0  0  0
  4  5  1  0  0  0  0
  6  4  1  0  0  0  0
  8 10  1  0  0  0  0
  8 11  1  0  0  0  0
  8  1  1  0  0  0  0
  9  8  1  0  0  0  0
 11 13  1  0  0  0  0
 12 11  1  0  0  0  0
 14 11  1  0  0  0  0
M  END
$$$$
Title Card Required
 OpenBabel07152211483D

 14 13  0  0  0  0  0  0  0  0999 V2000
   -1.0074    1.0527    0.3347 C   0  0  0  0  0  0  0  0  0  0  0  0
   -0.3088    1.7070    0.1570 H   0  0  0  0  0  0  0  0  0  0  0  0
   -1.0339    1.2495    1.4155 H   0  0  0  0  0  0  0  0  0  0  0  0
   -0.3023   -0.3431   -0.1028 C   0  0  0  0  0  0  0  0  0  0  0  0
   -0.2703   -1.1683    0.5094 H   0  0  0  0  0  0  0  0  0  0  0  0
   -0.4351   -0.4788   -1.1599 H   0  0  0  0  0  0  0  0  0  0  0  0
    1.7324   -0.0160    0.0018 Br  0  0  0  0  0  0  0  0  0  0  0  0
   -2.2949    1.0589   -0.3950 C   0  0  0  0  0  0  0  0  0  0  0  0
   -2.2738    0.7241   -1.5746 H   0  0  0  0  0  0  0  0  0  0  0  0
   -2.7301    2.0972   -0.3155 H   0  0  0  0  0  0  0  0  0  0  0  0
   -3.1676   -0.1667    0.1595 C   0  0  0  0  0  0  0  0  0  0  0  0
   -4.1540   -0.1606   -0.4228 H   0  0  0  0  0  0  0  0  0  0  0  0
   -3.5195   -0.2171    1.2343 H   0  0  0  0  0  0  0  0  0  0  0  0
   -2.5390   -1.3593    0.0038 O   0  0  0  0  0  1  0  0  0  0  0  0
  1  3  1  0  0  0  0
  2  1  1  0  0  0  0
  4  7  1  0  0  0  0
  4  1  1  0  0  0  0
  4  5  1  0  0  0  0
  6  4  1  0  0  0  0
  8 10  1  0  0  0  0
  8 11  1  0  0  0  0
  8  1  1  0  0  0  0
  9  8  1  0  0  0  0
 11 13  1  0  0  0  0
 12 11  1  0  0  0  0
 14 11  1  0  0  0  0
M  END
$$$$
Title Card Required
 OpenBabel07152211483D

 14 13  0  0  0  0  0  0  0  0999 V2000
   -1.0060    1.0398    0.3173 C   0  0  0  0  0  0  0  0  0  0  0  0
   -0.2827    1.8182    0.1505 H   0  0  0  0  0  0  0  0  0  0  0  0
   -1.0505    1.2455    1.4297 H   0  0  0  0  0  0  0  0  0  0  0  0
   -0.2966   -0.3393   -0.1018 C   0  0  0  0  0  0  0  0  0  0  0  0
   -0.2141   -1.1819    0.4531 H   0  0  0  0  0  0  0  0  0  0  0  0
   -0.5011   -0.5048   -1.0967 H   0  0  0  0  0  0  0  0  0  0  0  0
    1.7326   -0.0165    0.0029 Br  0  0  0  0  0  0  0  0  0  0  0  0
   -2.2989    1.0676   -0.3834 C   0  0  0  0  0  0  0  0  0  0  0  0
   -2.2651    0.6804   -1.5238 H   0  0  0  0  0  0  0  0  0  0  0  0
   -2.7444    2.0372   -0.3361 H   0  0  0  0  0  0  0  0  0  0  0  0
   -3.1809   -0.1811    0.1479 C   0  0  0  0  0  0  0  0  0  0  0  0
   -4.1132   -0.1066   -0.3516 H   0  0  0  0  0  0  0  0  0  0  0  0
   -3.4972   -0.1881    1.2290 H   0  0  0  0  0  0  0  0  0  0  0  0
   -2.5358   -1.3486    0.0037 O   0  0  0  0  0  1  0  0  0  0  0  0
  1  3  1  0  0  0  0
  2  1  1  0  0  0  0
  4  7  1  0  0  0  0
  4  1  1  0  0  0  0
  4  5  1  0  0  0  0
  6  4  1  0  0  0  0
  8 10  1  0  0  0  0
  8 11  1  0  0  0  0
  8  1  1  0  0  0  0
  9  8  1  0  0  0  0
 11 13  1  0  0  0  0
 12 11  1  0  0  0  0
 14 11  1  0  0  0  0
M  END
$$$$
Title Card Required
 OpenBabel07152211483D

 14 13  0  0  0  0  0  0  0  0999 V2000
   -1.0018    1.0231    0.3027 C   0  0  0  0  0  0  0  0  0  0  0  0
   -0.2421    1.9456    0.1147 H   0  0  0  0  0  0  0  0  0  0  0  0
   -1.0799    1.2196    1.4334 H   0  0  0  0  0  0  0  0  0  0  0  0
   -0.2908   -0.3282   -0.0985 C   0  0  0  0  0  0  0  0  0  0  0  0
   -0.1798   -1.2430    0.4384 H   0  0  0  0  0  0  0  0  0  0  0  0
   -0.5708   -0.5438   -1.0815 H   0  0  0  0  0  0  0  0  0  0  0  0
    1.7330   -0.0169    0.0039 Br  0  0  0  0  0  0  0  0  0  0  0  0
   -2.3057    1.0713   -0.3749 C   0  0  0  0  0  0  0  0  0  0  0  0
   -2.2466    0.6646   -1.4326 H   0  0  0  0  0  0  0  0  0  0  0  0
   -2.7750    1.9997   -0.3560 H   0  0  0  0  0  0  0  0  0  0  0  0
   -3.1904   -0.1969    0.1392 C   0  0  0  0  0  0  0  0  0  0  0  0
   -4.1138   -0.0472   -0.3113 H   0  0  0  0  0  0  0  0  0  0  0  0
   -3.4748   -0.1271    1.2306 H   0  0  0  0  0  0  0  0  0  0  0  0
   -2.5322   -1.3376    0.0022 O   0  0  0  0  0  1  0  0  0  0  0  0
  1  3  1  0  0  0  0
  2  1  1  0  0  0  0
  4  7  1  0  0  0  0
  4  1  1  0  0  0  0
  4  5  1  0  0  0  0
  6  4  1  0  0  0  0
  8 10  1  0  0  0  0
  8 11  1  0  0  0  0
  8  1  1  0  0  0  0
  9  8  1  0  0  0  0
 11 13  1  0  0  0  0
 12 11  1  0  0  0  0
 14 11  1  0  0  0  0
M  END
$$$$
Title Card Required
 OpenBabel07152211483D

 14 13  0  0  0  0  0  0  0  0999 V2000
   -0.9922    1.0082    0.2909 C   0  0  0  0  0  0  0  0  0  0  0  0
   -0.2339    2.0314    0.0701 H   0  0  0  0  0  0  0  0  0  0  0  0
   -1.1143    1.1745    1.4164 H   0  0  0  0  0  0  0  0  0  0  0  0
   -0.2843   -0.3140   -0.0926 C   0  0  0  0  0  0  0  0  0  0  0  0
   -0.1696   -1.3104    0.4441 H   0  0  0  0  0  0  0  0  0  0  0  0
   -0.6396   -0.5918   -1.1022 H   0  0  0  0  0  0  0  0  0  0  0  0
    1.7336   -0.0172    0.0047 Br  0  0  0  0  0  0  0  0  0  0  0  0
   -2.3144    1.0690   -0.3676 C   0  0  0  0  0  0  0  0  0  0  0  0
   -2.2204    0.6681   -1.3332 H   0  0  0  0  0  0  0  0  0  0  0  0
   -2.8270    2.0020   -0.3736 H   0  0  0  0  0  0  0  0  0  0  0  0
   -3.1950   -0.2129    0.1347 C   0  0  0  0  0  0  0  0  0  0  0  0
   -4.1690    0.0138   -0.3097 H   0  0  0  0  0  0  0  0  0  0  0  0
   -3.4528   -0.0423    1.2392 H   0  0  0  0  0  0  0  0  0  0  0  0
   -2.5285   -1.3268   -0.0007 O   0  0  0  0  0  1  0  0  0  0  0  0
  1  3  1  0  0  0  0
  2  1  1  0  0  0  0
  4  7  1  0  0  0  0
  4  1  1  0  0  0  0
  4  5  1  0  0  0  0
  6  4  1  0  0  0  0
  8 11  1  0  0  0  0
  8  1  1  0  0  0  0
  9  8  1  0  0  0  0
 10  8  1  0  0  0  0
 11 13  1  0  0  0  0
 12 11  1  0  0  0  0
 14 11  1  0  0  0  0
M  END
$$$$
Title Card Required
 OpenBabel07152211483D

 14 13  0  0  0  0  0  0  0  0999 V2000
   -0.9765    0.9967    0.2813 C   0  0  0  0  0  0  0  0  0  0  0  0
   -0.2705    2.0550    0.0222 H   0  0  0  0  0  0  0  0  0  0  0  0
   -1.1486    1.1100    1.3767 H   0  0  0  0  0  0  0  0  0  0  0  0
   -0.2764   -0.3004   -0.0858 C   0  0  0  0  0  0  0  0  0  0  0  0
   -0.1894   -1.3432    0.4511 H   0  0  0  0  0  0  0  0  0  0  0  0
   -0.6969   -0.6414   -1.1218 H   0  0  0  0  0  0  0  0  0  0  0  0
    1.7345   -0.0174    0.0056 Br  0  0  0  0  0  0  0  0  0  0  0  0
   -2.3262    1.0622   -0.3573 C   0  0  0  0  0  0  0  0  0  0  0  0
   -2.1832    0.6742   -1.2765 H   0  0  0  0  0  0  0  0  0  0  0  0
   -2.8946    2.0310   -0.3883 H   0  0  0  0  0  0  0  0  0  0  0  0
   -3.1974   -0.2278    0.1343 C   0  0  0  0  0  0  0  0  0  0  0  0
   -4.2555    0.0694   -0.3339 H   0  0  0  0  0  0  0  0  0  0  0  0
   -3.4294    0.0639    1.2493 H   0  0  0  0  0  0  0  0  0  0  0  0
   -2.5247   -1.3155   -0.0054 O   0  0  0  0  0  1  0  0  0  0  0  0
  1  3  1  0  0  0  0
  2  1  1  0  0  0  0
  4  7  1  0  0  0  0
  4  1  1  0  0  0  0
  4  5  1  0  0  0  0
  6  4  1  0  0  0  0
  8 11  1  0  0  0  0
  8  1  1  0  0  0  0
  9  8  1  0  0  0  0
 10  8  1  0  0  0  0
 11 13  1  0  0  0  0
 12 11  1  0  0  0  0
 14 11  1  0  0  0  0
M  END
$$$$
Title Card Required
 OpenBabel07152211483D

 14 13  0  0  0  0  0  0  0  0999 V2000
   -0.9573    0.9910    0.2741 C   0  0  0  0  0  0  0  0  0  0  0  0
   -0.3513    1.9989   -0.0191 H   0  0  0  0  0  0  0  0  0  0  0  0
   -1.1732    1.0358    1.3322 H   0  0  0  0  0  0  0  0  0  0  0  0
   -0.2678   -0.2924   -0.0812 C   0  0  0  0  0  0  0  0  0  0  0  0
   -0.2424   -1.3101    0.4532 H   0  0  0  0  0  0  0  0  0  0  0  0
   -0.7197   -0.6756   -1.1064 H   0  0  0  0  0  0  0  0  0  0  0  0
    1.7357   -0.0176    0.0063 Br  0  0  0  0  0  0  0  0  0  0  0  0
   -2.3423    1.0542   -0.3420 C   0  0  0  0  0  0  0  0  0  0  0  0
   -2.1355    0.6701   -1.3187 H   0  0  0  0  0  0  0  0  0  0  0  0
   -2.9504    2.0504   -0.3963 H   0  0  0  0  0  0  0  0  0  0  0  0
   -3.2005   -0.2368    0.1378 C   0  0  0  0  0  0  0  0  0  0  0  0
   -4.3259    0.0981   -0.3631 H   0  0  0  0  0  0  0  0  0  0  0  0
   -3.4072    0.1696    1.2496 H   0  0  0  0  0  0  0  0  0  0  0  0
   -2.5218   -1.3051   -0.0118 O   0  0  0  0  0  1  0  0  0  0  0  0
  1  3  1  0  0  0  0
  2  1  1  0  0  0  0
  4  7  1  0  0  0  0
  4  1  1  0  0  0  0
  4  5  1  0  0  0  0
  6  4  1  0  0  0  0
  8 11  1  0  0  0  0
  8  1  1  0  0  0  0
  9  8  1  0  0  0  0
 10  8  1  0  0  0  0
 11 13  1  0  0  0  0
 12 11  1  0  0  0  0
 14 11  1  0  0  0  0
M  END
$$$$
Title Card Required
 OpenBabel07152211483D

 14 13  0  0  0  0  0  0  0  0999 V2000
   -0.9399    0.9904    0.2687 C   0  0  0  0  0  0  0  0  0  0  0  0
   -0.4453    1.8938   -0.0463 H   0  0  0  0  0  0  0  0  0  0  0  0
   -1.1832    0.9706    1.3128 H   0  0  0  0  0  0  0  0  0  0  0  0
   -0.2599   -0.2906   -0.0806 C   0  0  0  0  0  0  0  0  0  0  0  0
   -0.3130   -1.2297    0.4594 H   0  0  0  0  0  0  0  0  0  0  0  0
   -0.7019   -0.6859   -1.0596 H   0  0  0  0  0  0  0  0  0  0  0  0
    1.7369   -0.0176    0.0067 Br  0  0  0  0  0  0  0  0  0  0  0  0
   -2.3599    1.0457   -0.3287 C   0  0  0  0  0  0  0  0  0  0  0  0
   -2.0962    0.6758   -1.4042 H   0  0  0  0  0  0  0  0  0  0  0  0
   -2.9735    2.0381   -0.3942 H   0  0  0  0  0  0  0  0  0  0  0  0
   -3.2052   -0.2365    0.1440 C   0  0  0  0  0  0  0  0  0  0  0  0
   -4.3517    0.0903   -0.3805 H   0  0  0  0  0  0  0  0  0  0  0  0
   -3.3914    0.2451    1.2364 H   0  0  0  0  0  0  0  0  0  0  0  0
   -2.5204   -1.2970   -0.0183 O   0  0  0  0  0  1  0  0  0  0  0  0
  1  3  1  0  0  0  0
  2  1  1  0  0  0  0
  4  7  1  0  0  0  0
  4  1  1  0  0  0  0
  4  5  1  0  0  0  0
  6  4  1  0  0  0  0
  8 11  1  0  0  0  0
  8  1  1  0  0  0  0
  9  8  1  0  0  0  0
 10  8  1  0  0  0  0
 11 13  1  0  0  0  0
 12 11  1  0  0  0  0
 14 11  1  0  0  0  0
M  END
$$$$
Title Card Required
 OpenBabel07152211483D

 14 13  0  0  0  0  0  0  0  0999 V2000
   -0.9270    0.9892    0.2649 C   0  0  0  0  0  0  0  0  0  0  0  0
   -0.5191    1.7995   -0.0767 H   0  0  0  0  0  0  0  0  0  0  0  0
   -1.1788    0.9148    1.3237 H   0  0  0  0  0  0  0  0  0  0  0  0
   -0.2517   -0.2912   -0.0837 C   0  0  0  0  0  0  0  0  0  0  0  0
   -0.3987   -1.1353    0.4907 H   0  0  0  0  0  0  0  0  0  0  0  0
   -0.6511   -0.6797   -1.0022 H   0  0  0  0  0  0  0  0  0  0  0  0
    1.7382   -0.0177    0.0071 Br  0  0  0  0  0  0  0  0  0  0  0  0
   -2.3787    1.0342   -0.3217 C   0  0  0  0  0  0  0  0  0  0  0  0
   -2.0763    0.7084   -1.4747 H   0  0  0  0  0  0  0  0  0  0  0  0
   -2.9684    1.9979   -0.3809 H   0  0  0  0  0  0  0  0  0  0  0  0
   -3.2117   -0.2272    0.1517 C   0  0  0  0  0  0  0  0  0  0  0  0
   -4.3356    0.0489   -0.3827 H   0  0  0  0  0  0  0  0  0  0  0  0
   -3.3829    0.2902    1.2136 H   0  0  0  0  0  0  0  0  0  0  0  0
   -2.5202   -1.2905   -0.0253 O   0  0  0  0  0  1  0  0  0  0  0  0
  1  3  1  0  0  0  0
  2  1  1  0  0  0  0
  4  7  1  0  0  0  0
  4  1  1  0  0  0  0
  4  5  1  0  0  0  0
  6  4  1  0  0  0  0
  8 11  1  0  0  0  0
  8  1  1  0  0  0  0
  9  8  1  0  0  0  0
 10  8  1  0  0  0  0
 11 13  1  0  0  0  0
 12 11  1  0  0  0  0
 14 11  1  0  0  0  0
M  END
$$$$
Title Card Required
 OpenBabel07152211483D

 14 13  0  0  0  0  0  0  0  0999 V2000
   -0.9242    0.9796    0.2658 C   0  0  0  0  0  0  0  0  0  0  0  0
   -0.5212    1.8125   -0.1399 H   0  0  0  0  0  0  0  0  0  0  0  0
   -1.1548    0.8776    1.3535 H   0  0  0  0  0  0  0  0  0  0  0  0
   -0.2422   -0.2899   -0.0889 C   0  0  0  0  0  0  0  0  0  0  0  0
   -0.4947   -1.0670    0.5693 H   0  0  0  0  0  0  0  0  0  0  0  0
   -0.5826   -0.6723   -0.9765 H   0  0  0  0  0  0  0  0  0  0  0  0
    1.7395   -0.0177    0.0074 Br  0  0  0  0  0  0  0  0  0  0  0  0
   -2.3959    1.0185   -0.3234 C   0  0  0  0  0  0  0  0  0  0  0  0
   -2.0854    0.7695   -1.4984 H   0  0  0  0  0  0  0  0  0  0  0  0
   -2.9442    1.9487   -0.3555 H   0  0  0  0  0  0  0  0  0  0  0  0
   -3.2194   -0.2094    0.1593 C   0  0  0  0  0  0  0  0  0  0  0  0
   -4.2801   -0.0221   -0.3667 H   0  0  0  0  0  0  0  0  0  0  0  0
   -3.3850    0.2999    1.1909 H   0  0  0  0  0  0  0  0  0  0  0  0
   -2.5216   -1.2857   -0.0319 O   0  0  0  0  0  1  0  0  0  0  0  0
  1  3  1  0  0  0  0
  2  1  1  0  0  0  0
  4  7  1  0  0  0  0
  4  1  1  0  0  0  0
  4  5  1  0  0  0  0
  6  4  1  0  0  0  0
  8 11  1  0  0  0  0
  8  1  1  0  0  0  0
  9  8  1  0  0  0  0
 10  8  1  0  0  0  0
 11 13  1  0  0  0  0
 12 11  1  0  0  0  0
 14 11  1  0  0  0  0
M  END
$$$$
Title Card Required
 OpenBabel07152211483D

 14 13  0  0  0  0  0  0  0  0999 V2000
   -0.9294    0.9669    0.2699 C   0  0  0  0  0  0  0  0  0  0  0  0
   -0.4794    1.8871   -0.2065 H   0  0  0  0  0  0  0  0  0  0  0  0
   -1.1167    0.8670    1.3786 H   0  0  0  0  0  0  0  0  0  0  0  0
   -0.2326   -0.2869   -0.0916 C   0  0  0  0  0  0  0  0  0  0  0  0
   -0.5766   -1.0285    0.6624 H   0  0  0  0  0  0  0  0  0  0  0  0
   -0.5239   -0.6804   -1.0090 H   0  0  0  0  0  0  0  0  0  0  0  0
    1.7408   -0.0178    0.0075 Br  0  0  0  0  0  0  0  0  0  0  0  0
   -2.4072    1.0014   -0.3318 C   0  0  0  0  0  0  0  0  0  0  0  0
   -2.1173    0.8370   -1.4778 H   0  0  0  0  0  0  0  0  0  0  0  0
   -2.9225    1.9240   -0.3240 H   0  0  0  0  0  0  0  0  0  0  0  0
   -3.2258   -0.1896    0.1648 C   0  0  0  0  0  0  0  0  0  0  0  0
   -4.2154   -0.0974   -0.3425 H   0  0  0  0  0  0  0  0  0  0  0  0
   -3.3964    0.2829    1.1814 H   0  0  0  0  0  0  0  0  0  0  0  0
   -2.5239   -1.2829   -0.0369 O   0  0  0  0  0  1  0  0  0  0  0  0
  1  3  1  0  0  0  0
  2  1  1  0  0  0  0
  4  7  1  0  0  0  0
  4  1  1  0  0  0  0
  4  5  1  0  0  0  0
  6  4  1  0  0  0  0
  8 10  1  0  0  0  0
  8 11  1  0  0  0  0
  8  1  1  0  0  0  0
  9  8  1  0  0  0  0
 11 13  1  0  0  0  0
 12 11  1  0  0  0  0
 14 11  1  0  0  0  0
M  END
$$$$
Title Card Required
 OpenBabel07152211483D

 14 13  0  0  0  0  0  0  0  0999 V2000
   -0.9386    0.9564    0.2741 C   0  0  0  0  0  0  0  0  0  0  0  0
   -0.4345    1.9524   -0.2515 H   0  0  0  0  0  0  0  0  0  0  0  0
   -1.0658    0.8782    1.3942 H   0  0  0  0  0  0  0  0  0  0  0  0
   -0.2231   -0.2847   -0.0909 C   0  0  0  0  0  0  0  0  0  0  0  0
   -0.6427   -0.9908    0.7440 H   0  0  0  0  0  0  0  0  0  0  0  0
   -0.4667   -0.7001   -1.0767 H   0  0  0  0  0  0  0  0  0  0  0  0
    1.7420   -0.0179    0.0077 Br  0  0  0  0  0  0  0  0  0  0  0  0
   -2.4143    0.9819   -0.3448 C   0  0  0  0  0  0  0  0  0  0  0  0
   -2.1658    0.9068   -1.4309 H   0  0  0  0  0  0  0  0  0  0  0  0
   -2.9090    1.9300   -0.2834 H   0  0  0  0  0  0  0  0  0  0  0  0
   -3.2301   -0.1684    0.1689 C   0  0  0  0  0  0  0  0  0  0  0  0
   -4.1633   -0.1739   -0.3205 H   0  0  0  0  0  0  0  0  0  0  0  0
   -3.4163    0.2495    1.1890 H   0  0  0  0  0  0  0  0  0  0  0  0
   -2.5270   -1.2811   -0.0411 O   0  0  0  0  0  1  0  0  0  0  0  0
  1  3  1  0  0  0  0
  2  1  1  0  0  0  0
  4  7  1  0  0  0  0
  4  1  1  0  0  0  0
  4  5  1  0  0  0  0
  6  4  1  0  0  0  0
  8 10  1  0  0  0  0
  8 11  1  0  0  0  0
  8  1  1  0  0  0  0
  9  8  1  0  0  0  0
 11 13  1  0  0  0  0
 12 11  1  0  0  0  0
 14 11  1  0  0  0  0
M  END
$$$$
Title Card Required
 OpenBabel07152211483D

 14 13  0  0  0  0  0  0  0  0999 V2000
   -0.9514    0.9500    0.2766 C   0  0  0  0  0  0  0  0  0  0  0  0
   -0.4024    1.9798   -0.2607 H   0  0  0  0  0  0  0  0  0  0  0  0
   -0.9996    0.9150    1.3972 H   0  0  0  0  0  0  0  0  0  0  0  0
   -0.2144   -0.2857   -0.0876 C   0  0  0  0  0  0  0  0  0  0  0  0
   -0.6869   -0.9416    0.7938 H   0  0  0  0  0  0  0  0  0  0  0  0
   -0.3988   -0.7208   -1.1475 H   0  0  0  0  0  0  0  0  0  0  0  0
    1.7435   -0.0181    0.0079 Br  0  0  0  0  0  0  0  0  0  0  0  0
   -2.4183    0.9605   -0.3610 C   0  0  0  0  0  0  0  0  0  0  0  0
   -2.2289    0.9763   -1.3813 H   0  0  0  0  0  0  0  0  0  0  0  0
   -2.8997    1.9622   -0.2265 H   0  0  0  0  0  0  0  0  0  0  0  0
   -3.2305   -0.1456    0.1730 C   0  0  0  0  0  0  0  0  0  0  0  0
   -4.1530   -0.2524   -0.3145 H   0  0  0  0  0  0  0  0  0  0  0  0
   -3.4469    0.2007    1.2191 H   0  0  0  0  0  0  0  0  0  0  0  0
   -2.5309   -1.2802   -0.0445 O   0  0  0  0  0  1  0  0  0  0  0  0
  1  3  1  0  0  0  0
  2  1  1  0  0  0  0
  4  7  1  0  0  0  0
  4  1  1  0  0  0  0
  4  5  1  0  0  0  0
  6  4  1  0  0  0  0
  8 10  1  0  0  0  0
  8 11  1  0  0  0  0
  8  1  1  0  0  0  0
  9  8  1  0  0  0  0
 11 13  1  0  0  0  0
 12 11  1  0  0  0  0
 14 11  1  0  0  0  0
M  END
$$$$
Title Card Required
 OpenBabel07152211483D

 14 13  0  0  0  0  0  0  0  0999 V2000
   -0.9668    0.9502    0.2753 C   0  0  0  0  0  0  0  0  0  0  0  0
   -0.3971    1.9485   -0.2222 H   0  0  0  0  0  0  0  0  0  0  0  0
   -0.9244    0.9810    1.3847 H   0  0  0  0  0  0  0  0  0  0  0  0
   -0.2081   -0.2918   -0.0833 C   0  0  0  0  0  0  0  0  0  0  0  0
   -0.6940   -0.8879    0.7880 H   0  0  0  0  0  0  0  0  0  0  0  0
   -0.3203   -0.7282   -1.1775 H   0  0  0  0  0  0  0  0  0  0  0  0
    1.7453   -0.0182    0.0081 Br  0  0  0  0  0  0  0  0  0  0  0  0
   -2.4202    0.9422   -0.3745 C   0  0  0  0  0  0  0  0  0  0  0  0
   -2.2951    1.0355   -1.3892 H   0  0  0  0  0  0  0  0  0  0  0  0
   -2.8829    1.9965   -0.1529 H   0  0  0  0  0  0  0  0  0  0  0  0
   -3.2267   -0.1245    0.1774 C   0  0  0  0  0  0  0  0  0  0  0  0
   -4.2016   -0.3224   -0.3307 H   0  0  0  0  0  0  0  0  0  0  0  0
   -3.4863    0.1396    1.2669 H   0  0  0  0  0  0  0  0  0  0  0  0
   -2.5355   -1.2799   -0.0468 O   0  0  0  0  0  1  0  0  0  0  0  0
  1  3  1  0  0  0  0
  2  1  1  0  0  0  0
  4  7  1  0  0  0  0
  4  1  1  0  0  0  0
  4  5  1  0  0  0  0
  6  4  1  0  0  0  0
  8 10  1  0  0  0  0
  8 11  1  0  0  0  0
  8  1  1  0  0  0  0
  9  8  1  0  0  0  0
 11 13  1  0  0  0  0
 12 11  1  0  0  0  0
 14 11  1  0  0  0  0
M  END
$$$$
Title Card Required
 OpenBabel07152211483D

 14 13  0  0  0  0  0  0  0  0999 V2000
   -0.9810    0.9562    0.2689 C   0  0  0  0  0  0  0  0  0  0  0  0
   -0.4209    1.8699   -0.1509 H   0  0  0  0  0  0  0  0  0  0  0  0
   -0.8618    1.0595    1.3630 H   0  0  0  0  0  0  0  0  0  0  0  0
   -0.2049   -0.3009   -0.0801 C   0  0  0  0  0  0  0  0  0  0  0  0
   -0.6634   -0.8573    0.7353 H   0  0  0  0  0  0  0  0  0  0  0  0
   -0.2514   -0.7174   -1.1477 H   0  0  0  0  0  0  0  0  0  0  0  0
    1.7473   -0.0183    0.0085 Br  0  0  0  0  0  0  0  0  0  0  0  0
   -2.4204    0.9342   -0.3804 C   0  0  0  0  0  0  0  0  0  0  0  0
   -2.3508    1.0735   -1.4666 H   0  0  0  0  0  0  0  0  0  0  0  0
   -2.8538    2.0026   -0.0816 H   0  0  0  0  0  0  0  0  0  0  0  0
   -3.2237   -0.1121    0.1813 C   0  0  0  0  0  0  0  0  0  0  0  0
   -4.2658   -0.3594   -0.3477 H   0  0  0  0  0  0  0  0  0  0  0  0
   -3.5213    0.0809    1.3057 H   0  0  0  0  0  0  0  0  0  0  0  0
   -2.5399   -1.2796   -0.0474 O   0  0  0  0  0  1  0  0  0  0  0  0
  1  3  1  0  0  0  0
  2  1  1  0  0  0  0
  4  7  1  0  0  0  0
  4  1  1  0  0  0  0
  4  5  1  0  0  0  0
  6  4  1  0  0  0  0
  8 10  1  0  0  0  0
  8 11  1  0  0  0  0
  8  1  1  0  0  0  0
  9  8  1  0  0  0  0
 11 13  1  0  0  0  0
 12 11  1  0  0  0  0
 14 11  1  0  0  0  0
M  END
$$$$
Title Card Required
 OpenBabel07152211483D

 14 13  0  0  0  0  0  0  0  0999 V2000
   -0.9938    0.9650    0.2580 C   0  0  0  0  0  0  0  0  0  0  0  0
   -0.4576    1.7772   -0.0733 H   0  0  0  0  0  0  0  0  0  0  0  0
   -0.8184    1.1407    1.3390 H   0  0  0  0  0  0  0  0  0  0  0  0
   -0.2033   -0.3101   -0.0790 C   0  0  0  0  0  0  0  0  0  0  0  0
   -0.6122   -0.8721    0.6723 H   0  0  0  0  0  0  0  0  0  0  0  0
   -0.1983   -0.6966   -1.0791 H   0  0  0  0  0  0  0  0  0  0  0  0
    1.7495   -0.0184    0.0090 Br  0  0  0  0  0  0  0  0  0  0  0  0
   -2.4189    0.9373   -0.3830 C   0  0  0  0  0  0  0  0  0  0  0  0
   -2.4028    1.0912   -1.5518 H   0  0  0  0  0  0  0  0  0  0  0  0
   -2.8141    1.9780   -0.0182 H   0  0  0  0  0  0  0  0  0  0  0  0
   -3.2248   -0.1104    0.1846 C   0  0  0  0  0  0  0  0  0  0  0  0
   -4.3130   -0.3568   -0.3501 H   0  0  0  0  0  0  0  0  0  0  0  0
   -3.5472    0.0292    1.3220 H   0  0  0  0  0  0  0  0  0  0  0  0
   -2.5443   -1.2787   -0.0465 O   0  0  0  0  0  1  0  0  0  0  0  0
  1  3  1  0  0  0  0
  2  1  1  0  0  0  0
  4  7  1  0  0  0  0
  4  1  1  0  0  0  0
  4  5  1  0  0  0  0
  6  4  1  0  0  0  0
  8 10  1  0  0  0  0
  8 11  1  0  0  0  0
  8  1  1  0  0  0  0
  9  8  1  0  0  0  0
 11 13  1  0  0  0  0
 12 11  1  0  0  0  0
 14 11  1  0  0  0  0
M  END
$$$$
Title Card Required
 OpenBabel07152211483D

 14 13  0  0  0  0  0  0  0  0999 V2000
   -1.0094    0.9709    0.2426 C   0  0  0  0  0  0  0  0  0  0  0  0
   -0.4618    1.7410   -0.0321 H   0  0  0  0  0  0  0  0  0  0  0  0
   -0.8042    1.2223    1.3150 H   0  0  0  0  0  0  0  0  0  0  0  0
   -0.2015   -0.3156   -0.0790 C   0  0  0  0  0  0  0  0  0  0  0  0
   -0.5529   -0.9773    0.6383 H   0  0  0  0  0  0  0  0  0  0  0  0
   -0.1651   -0.6825   -1.0147 H   0  0  0  0  0  0  0  0  0  0  0  0
    1.7525   -0.0184    0.0099 Br  0  0  0  0  0  0  0  0  0  0  0  0
   -2.4157    0.9545   -0.3857 C   0  0  0  0  0  0  0  0  0  0  0  0
   -2.4581    1.0841   -1.5901 H   0  0  0  0  0  0  0  0  0  0  0  0
   -2.7653    1.9250    0.0382 H   0  0  0  0  0  0  0  0  0  0  0  0
   -3.2324   -0.1234    0.1875 C   0  0  0  0  0  0  0  0  0  0  0  0
   -4.3299   -0.2999   -0.3292 H   0  0  0  0  0  0  0  0  0  0  0  0
   -3.5611   -0.0133    1.3063 H   0  0  0  0  0  0  0  0  0  0  0  0
   -2.5496   -1.2765   -0.0440 O   0  0  0  0  0  1  0  0  0  0  0  0
  1  3  1  0  0  0  0
  2  1  1  0  0  0  0
  4  7  1  0  0  0  0
  4  1  1  0  0  0  0
  4  5  1  0  0  0  0
  6  4  1  0  0  0  0
  8 10  1  0  0  0  0
  8 11  1  0  0  0  0
  8  1  1  0  0  0  0
  9  8  1  0  0  0  0
 11 13  1  0  0  0  0
 12 11  1  0  0  0  0
 14 11  1  0  0  0  0
M  END
$$$$
Title Card Required
 OpenBabel07152211483D

 14 13  0  0  0  0  0  0  0  0999 V2000
   -1.0225    0.9680    0.2297 C   0  0  0  0  0  0  0  0  0  0  0  0
   -0.4075    1.8064   -0.0638 H   0  0  0  0  0  0  0  0  0  0  0  0
   -0.8287    1.2667    1.3006 H   0  0  0  0  0  0  0  0  0  0  0  0
   -0.2008   -0.3144   -0.0745 C   0  0  0  0  0  0  0  0  0  0  0  0
   -0.5050   -1.1151    0.6362 H   0  0  0  0  0  0  0  0  0  0  0  0
   -0.1627   -0.6978   -1.0348 H   0  0  0  0  0  0  0  0  0  0  0  0
    1.7553   -0.0182    0.0109 Br  0  0  0  0  0  0  0  0  0  0  0  0
   -2.4129    0.9764   -0.3883 C   0  0  0  0  0  0  0  0  0  0  0  0
   -2.4944    1.0601   -1.5530 H   0  0  0  0  0  0  0  0  0  0  0  0
   -2.7377    1.8899    0.0697 H   0  0  0  0  0  0  0  0  0  0  0  0
   -3.2425   -0.1446    0.1884 C   0  0  0  0  0  0  0  0  0  0  0  0
   -4.3136   -0.2165   -0.2976 H   0  0  0  0  0  0  0  0  0  0  0  0
   -3.5592   -0.0281    1.2746 H   0  0  0  0  0  0  0  0  0  0  0  0
   -2.5542   -1.2743   -0.0410 O   0  0  0  0  0  1  0  0  0  0  0  0
  1  3  1  0  0  0  0
  2  1  1  0  0  0  0
  4  7  1  0  0  0  0
  4  1  1  0  0  0  0
  4  5  1  0  0  0  0
  6  4  1  0  0  0  0
  8 10  1  0  0  0  0
  8 11  1  0  0  0  0
  8  1  1  0  0  0  0
  9  8  1  0  0  0  0
 11 13  1  0  0  0  0
 12 11  1  0  0  0  0
 14 11  1  0  0  0  0
M  END
$$$$
Title Card Required
 OpenBabel07152211483D

 14 13  0  0  0  0  0  0  0  0999 V2000
   -1.0307    0.9637    0.2176 C   0  0  0  0  0  0  0  0  0  0  0  0
   -0.3504    1.8832   -0.1226 H   0  0  0  0  0  0  0  0  0  0  0  0
   -0.8777    1.2855    1.2879 H   0  0  0  0  0  0  0  0  0  0  0  0
   -0.2017   -0.3128   -0.0661 C   0  0  0  0  0  0  0  0  0  0  0  0
   -0.4553   -1.2322    0.6253 H   0  0  0  0  0  0  0  0  0  0  0  0
   -0.1797   -0.7228   -1.0930 H   0  0  0  0  0  0  0  0  0  0  0  0
    1.7580   -0.0180    0.0118 Br  0  0  0  0  0  0  0  0  0  0  0  0
   -2.4111    0.9979   -0.3901 C   0  0  0  0  0  0  0  0  0  0  0  0
   -2.5165    1.0316   -1.4830 H   0  0  0  0  0  0  0  0  0  0  0  0
   -2.7330    1.8877    0.0919 H   0  0  0  0  0  0  0  0  0  0  0  0
   -3.2524   -0.1684    0.1875 C   0  0  0  0  0  0  0  0  0  0  0  0
   -4.2870   -0.1263   -0.2682 H   0  0  0  0  0  0  0  0  0  0  0  0
   -3.5495   -0.0248    1.2478 H   0  0  0  0  0  0  0  0  0  0  0  0
   -2.5583   -1.2727   -0.0381 O   0  0  0  0  0  1  0  0  0  0  0  0
  1  3  1  0  0  0  0
  2  1  1  0  0  0  0
  4  7  1  0  0  0  0
  4  1  1  0  0  0  0
  4  5  1  0  0  0  0
  6  4  1  0  0  0  0
  8 10  1  0  0  0  0
  8 11  1  0  0  0  0
  8  1  1  0  0  0  0
  9  8  1  0  0  0  0
 11 13  1  0  0  0  0
 12 11  1  0  0  0  0
 14 11  1  0  0  0  0
M  END
$$$$
Title Card Required
 OpenBabel07152211483D

 14 13  0  0  0  0  0  0  0  0999 V2000
   -1.0332    0.9611    0.2033 C   0  0  0  0  0  0  0  0  0  0  0  0
   -0.3148    1.9329   -0.1916 H   0  0  0  0  0  0  0  0  0  0  0  0
   -0.9509    1.2859    1.2710 H   0  0  0  0  0  0  0  0  0  0  0  0
   -0.2042   -0.3146   -0.0561 C   0  0  0  0  0  0  0  0  0  0  0  0
   -0.3950   -1.3162    0.5903 H   0  0  0  0  0  0  0  0  0  0  0  0
   -0.2156   -0.7401   -1.1473 H   0  0  0  0  0  0  0  0  0  0  0  0
    1.7610   -0.0177    0.0130 Br  0  0  0  0  0  0  0  0  0  0  0  0
   -2.4103    1.0203   -0.3886 C   0  0  0  0  0  0  0  0  0  0  0  0
   -2.5305    1.0010   -1.4103 H   0  0  0  0  0  0  0  0  0  0  0  0
   -2.7505    1.9194    0.1112 H   0  0  0  0  0  0  0  0  0  0  0  0
   -3.2615   -0.1951    0.1847 C   0  0  0  0  0  0  0  0  0  0  0  0
   -4.2641   -0.0276   -0.2475 H   0  0  0  0  0  0  0  0  0  0  0  0
   -3.5345   -0.0066    1.2366 H   0  0  0  0  0  0  0  0  0  0  0  0
   -2.5630   -1.2722   -0.0350 O   0  0  0  0  0  1  0  0  0  0  0  0
  1  3  1  0  0  0  0
  2  1  1  0  0  0  0
  4  7  1  0  0  0  0
  4  1  1  0  0  0  0
  4  5  1  0  0  0  0
  6  4  1  0  0  0  0
  8 10  1  0  0  0  0
  8 11  1  0  0  0  0
  8  1  1  0  0  0  0
  9  8  1  0  0  0  0
 11 13  1  0  0  0  0
 12 11  1  0  0  0  0
 14 11  1  0  0  0  0
M  END
$$$$
Title Card Required
 OpenBabel07152211483D

 14 13  0  0  0  0  0  0  0  0999 V2000
   -1.0287    0.9621    0.1858 C   0  0  0  0  0  0  0  0  0  0  0  0
   -0.3149    1.9326   -0.2594 H   0  0  0  0  0  0  0  0  0  0  0  0
   -1.0452    1.2681    1.2489 H   0  0  0  0  0  0  0  0  0  0  0  0
   -0.2082   -0.3227   -0.0472 C   0  0  0  0  0  0  0  0  0  0  0  0
   -0.3265   -1.3469    0.5278 H   0  0  0  0  0  0  0  0  0  0  0  0
   -0.2703   -0.7350   -1.1650 H   0  0  0  0  0  0  0  0  0  0  0  0
    1.7646   -0.0172    0.0144 Br  0  0  0  0  0  0  0  0  0  0  0  0
   -2.4112    1.0441   -0.3785 C   0  0  0  0  0  0  0  0  0  0  0  0
   -2.5405    0.9711   -1.3884 H   0  0  0  0  0  0  0  0  0  0  0  0
   -2.7882    1.9765    0.1201 H   0  0  0  0  0  0  0  0  0  0  0  0
   -3.2684   -0.2226    0.1807 C   0  0  0  0  0  0  0  0  0  0  0  0
   -4.2605    0.0726   -0.2463 H   0  0  0  0  0  0  0  0  0  0  0  0
   -3.5147    0.0254    1.2507 H   0  0  0  0  0  0  0  0  0  0  0  0
   -2.5684   -1.2736   -0.0321 O   0  0  0  0  0  1  0  0  0  0  0  0
  1  3  1  0  0  0  0
  2  1  1  0  0  0  0
  4  7  1  0  0  0  0
  4  1  1  0  0  0  0
  4  5  1  0  0  0  0
  6  4  1  0  0  0  0
  8 10  1  0  0  0  0
  8 11  1  0  0  0  0
  8  1  1  0  0  0  0
  9  8  1  0  0  0  0
 11 13  1  0  0  0  0
 12 11  1  0  0  0  0
 14 11  1  0  0  0  0
M  END
$$$$
Title Card Required
 OpenBabel07152211483D

 14 13  0  0  0  0  0  0  0  0999 V2000
   -1.0188    0.9667    0.1679 C   0  0  0  0  0  0  0  0  0  0  0  0
   -0.3498    1.8800   -0.3076 H   0  0  0  0  0  0  0  0  0  0  0  0
   -1.1367    1.2395    1.2283 H   0  0  0  0  0  0  0  0  0  0  0  0
   -0.2128   -0.3357   -0.0428 C   0  0  0  0  0  0  0  0  0  0  0  0
   -0.2677   -1.3233    0.4599 H   0  0  0  0  0  0  0  0  0  0  0  0
   -0.3300   -0.7057   -1.1372 H   0  0  0  0  0  0  0  0  0  0  0  0
    1.7681   -0.0166    0.0158 Br  0  0  0  0  0  0  0  0  0  0  0  0
   -2.4140    1.0663   -0.3607 C   0  0  0  0  0  0  0  0  0  0  0  0
   -2.5469    0.9479   -1.4314 H   0  0  0  0  0  0  0  0  0  0  0  0
   -2.8306    2.0288    0.1081 H   0  0  0  0  0  0  0  0  0  0  0  0
   -3.2724   -0.2440    0.1775 C   0  0  0  0  0  0  0  0  0  0  0  0
   -4.2746    0.1482   -0.2645 H   0  0  0  0  0  0  0  0  0  0  0  0
   -3.4928    0.0591    1.2800 H   0  0  0  0  0  0  0  0  0  0  0  0
   -2.5741   -1.2776   -0.0302 O   0  0  0  0  0  1  0  0  0  0  0  0
  1  3  1  0  0  0  0
  2  1  1  0  0  0  0
  4  7  1  0  0  0  0
  4  1  1  0  0  0  0
  4  5  1  0  0  0  0
  6  4  1  0  0  0  0
  8 10  1  0  0  0  0
  8  1  1  0  0  0  0
  8 11  1  0  0  0  0
  9  8  1  0  0  0  0
 11 13  1  0  0  0  0
 12 11  1  0  0  0  0
 14 11  1  0  0  0  0
M  END
$$$$
Title Card Required
 OpenBabel07152211483D

 14 13  0  0  0  0  0  0  0  0999 V2000
   -1.0059    0.9735    0.1502 C   0  0  0  0  0  0  0  0  0  0  0  0
   -0.4061    1.7915   -0.3360 H   0  0  0  0  0  0  0  0  0  0  0  0
   -1.2161    1.2064    1.2119 H   0  0  0  0  0  0  0  0  0  0  0  0
   -0.2177   -0.3499   -0.0432 C   0  0  0  0  0  0  0  0  0  0  0  0
   -0.2240   -1.2800    0.4084 H   0  0  0  0  0  0  0  0  0  0  0  0
   -0.3888   -0.6611   -1.0832 H   0  0  0  0  0  0  0  0  0  0  0  0
    1.7716   -0.0160    0.0172 Br  0  0  0  0  0  0  0  0  0  0  0  0
   -2.4193    1.0870   -0.3405 C   0  0  0  0  0  0  0  0  0  0  0  0
   -2.5468    0.9349   -1.4882 H   0  0  0  0  0  0  0  0  0  0  0  0
   -2.8690    2.0638    0.0753 H   0  0  0  0  0  0  0  0  0  0  0  0
   -3.2752   -0.2576    0.1761 C   0  0  0  0  0  0  0  0  0  0  0  0
   -4.2917    0.1924   -0.2916 H   0  0  0  0  0  0  0  0  0  0  0  0
   -3.4694    0.0860    1.3080 H   0  0  0  0  0  0  0  0  0  0  0  0
   -2.5798   -1.2841   -0.0294 O   0  0  0  0  0  1  0  0  0  0  0  0
  1  3  1  0  0  0  0
  2  1  1  0  0  0  0
  4  7  1  0  0  0  0
  4  1  1  0  0  0  0
  4  5  1  0  0  0  0
  6  4  1  0  0  0  0
  8 10  1  0  0  0  0
  8  1  1  0  0  0  0
  8 11  1  0  0  0  0
  9  8  1  0  0  0  0
 11 13  1  0  0  0  0
 12 11  1  0  0  0  0
 14 11  1  0  0  0  0
M  END
$$$$
Title Card Required
 OpenBabel07152211483D

 14 13  0  0  0  0  0  0  0  0999 V2000
   -0.9905    0.9812    0.1321 C   0  0  0  0  0  0  0  0  0  0  0  0
   -0.4670    1.6842   -0.3588 H   0  0  0  0  0  0  0  0  0  0  0  0
   -1.2825    1.1685    1.1965 H   0  0  0  0  0  0  0  0  0  0  0  0
   -0.2240   -0.3620   -0.0489 C   0  0  0  0  0  0  0  0  0  0  0  0
   -0.1949   -1.2620    0.3990 H   0  0  0  0  0  0  0  0  0  0  0  0
   -0.4538   -0.6059   -1.0283 H   0  0  0  0  0  0  0  0  0  0  0  0
    1.7758   -0.0153    0.0188 Br  0  0  0  0  0  0  0  0  0  0  0  0
   -2.4289    1.1080   -0.3199 C   0  0  0  0  0  0  0  0  0  0  0  0
   -2.5366    0.9381   -1.5212 H   0  0  0  0  0  0  0  0  0  0  0  0
   -2.9036    2.0813    0.0175 H   0  0  0  0  0  0  0  0  0  0  0  0
   -3.2782   -0.2626    0.1772 C   0  0  0  0  0  0  0  0  0  0  0  0
   -4.3019    0.1988   -0.3227 H   0  0  0  0  0  0  0  0  0  0  0  0
   -3.4429    0.1017    1.3257 H   0  0  0  0  0  0  0  0  0  0  0  0
   -2.5869   -1.2946   -0.0296 O   0  0  0  0  0  1  0  0  0  0  0  0
  1  3  1  0  0  0  0
  2  1  1  0  0  0  0
  4  7  1  0  0  0  0
  4  1  1  0  0  0  0
  4  5  1  0  0  0  0
  6  4  1  0  0  0  0
  8 10  1  0  0  0  0
  8  1  1  0  0  0  0
  8 11  1  0  0  0  0
  9  8  1  0  0  0  0
 11 13  1  0  0  0  0
 12 11  1  0  0  0  0
 14 11  1  0  0  0  0
M  END
$$$$
Title Card Required
 OpenBabel07152211483D

 14 13  0  0  0  0  0  0  0  0999 V2000
   -0.9793    0.9822    0.1201 C   0  0  0  0  0  0  0  0  0  0  0  0
   -0.4618    1.6462   -0.4236 H   0  0  0  0  0  0  0  0  0  0  0  0
   -1.3085    1.1336    1.1789 H   0  0  0  0  0  0  0  0  0  0  0  0
   -0.2319   -0.3665   -0.0590 C   0  0  0  0  0  0  0  0  0  0  0  0
   -0.1910   -1.3142    0.4705 H   0  0  0  0  0  0  0  0  0  0  0  0
   -0.5305   -0.5610   -1.0398 H   0  0  0  0  0  0  0  0  0  0  0  0
    1.7809   -0.0143    0.0206 Br  0  0  0  0  0  0  0  0  0  0  0  0
   -2.4443    1.1266   -0.3039 C   0  0  0  0  0  0  0  0  0  0  0  0
   -2.5128    0.9695   -1.4893 H   0  0  0  0  0  0  0  0  0  0  0  0
   -2.9309    2.0822   -0.0644 H   0  0  0  0  0  0  0  0  0  0  0  0
   -3.2817   -0.2537    0.1822 C   0  0  0  0  0  0  0  0  0  0  0  0
   -4.2920    0.1407   -0.3481 H   0  0  0  0  0  0  0  0  0  0  0  0
   -3.4179    0.0940    1.3183 H   0  0  0  0  0  0  0  0  0  0  0  0
   -2.5964   -1.3105   -0.0314 O   0  0  0  0  0  1  0  0  0  0  0  0
  1  3  1  0  0  0  0
  2  1  1  0  0  0  0
  4  7  1  0  0  0  0
  4  1  1  0  0  0  0
  4  5  1  0  0  0  0
  6  4  1  0  0  0  0
  8 10  1  0  0  0  0
  8  1  1  0  0  0  0
  8 11  1  0  0  0  0
  9  8  1  0  0  0  0
 11 13  1  0  0  0  0
 12 11  1  0  0  0  0
 14 11  1  0  0  0  0
M  END
$$$$
Title Card Required
 OpenBabel07152211483D

 14 13  0  0  0  0  0  0  0  0999 V2000
   -0.9778    0.9764    0.1192 C   0  0  0  0  0  0  0  0  0  0  0  0
   -0.3918    1.6956   -0.5058 H   0  0  0  0  0  0  0  0  0  0  0  0
   -1.2771    1.1224    1.1695 H   0  0  0  0  0  0  0  0  0  0  0  0
   -0.2390   -0.3671   -0.0671 C   0  0  0  0  0  0  0  0  0  0  0  0
   -0.2147   -1.3535    0.5534 H   0  0  0  0  0  0  0  0  0  0  0  0
   -0.5857   -0.5515   -1.1064 H   0  0  0  0  0  0  0  0  0  0  0  0
    1.7851   -0.0133    0.0221 Br  0  0  0  0  0  0  0  0  0  0  0  0
   -2.4582    1.1342   -0.2992 C   0  0  0  0  0  0  0  0  0  0  0  0
   -2.4895    1.0119   -1.4160 H   0  0  0  0  0  0  0  0  0  0  0  0
   -2.9462    2.0859   -0.1252 H   0  0  0  0  0  0  0  0  0  0  0  0
   -3.2836   -0.2366    0.1884 C   0  0  0  0  0  0  0  0  0  0  0  0
   -4.2683    0.0481   -0.3540 H   0  0  0  0  0  0  0  0  0  0  0  0
   -3.4085    0.0681    1.2932 H   0  0  0  0  0  0  0  0  0  0  0  0
   -2.6051   -1.3247   -0.0339 O   0  0  0  0  0  1  0  0  0  0  0  0
  1  3  1  0  0  0  0
  2  1  1  0  0  0  0
  4  7  1  0  0  0  0
  4  1  1  0  0  0  0
  4  5  1  0  0  0  0
  6  4  1  0  0  0  0
  8 10  1  0  0  0  0
  8  1  1  0  0  0  0
  8 11  1  0  0  0  0
  9  8  1  0  0  0  0
 11 13  1  0  0  0  0
 12 11  1  0  0  0  0
 14 11  1  0  0  0  0
M  END
$$$$
Title Card Required
 OpenBabel07152211483D

 14 13  0  0  0  0  0  0  0  0999 V2000
   -0.9790    0.9707    0.1211 C   0  0  0  0  0  0  0  0  0  0  0  0
   -0.3199    1.7500   -0.5601 H   0  0  0  0  0  0  0  0  0  0  0  0
   -1.2015    1.1313    1.1749 H   0  0  0  0  0  0  0  0  0  0  0  0
   -0.2478   -0.3698   -0.0762 C   0  0  0  0  0  0  0  0  0  0  0  0
   -0.2604   -1.3384    0.6152 H   0  0  0  0  0  0  0  0  0  0  0  0
   -0.6165   -0.5634   -1.1687 H   0  0  0  0  0  0  0  0  0  0  0  0
    1.7892   -0.0124    0.0234 Br  0  0  0  0  0  0  0  0  0  0  0  0
   -2.4716    1.1346   -0.3001 C   0  0  0  0  0  0  0  0  0  0  0  0
   -2.4685    1.0571   -1.3410 H   0  0  0  0  0  0  0  0  0  0  0  0
   -2.9581    2.1037   -0.1679 H   0  0  0  0  0  0  0  0  0  0  0  0
   -3.2832   -0.2148    0.1950 C   0  0  0  0  0  0  0  0  0  0  0  0
   -4.2436   -0.0657   -0.3491 H   0  0  0  0  0  0  0  0  0  0  0  0
   -3.4134    0.0330    1.2664 H   0  0  0  0  0  0  0  0  0  0  0  0
   -2.6145   -1.3386   -0.0369 O   0  0  0  0  0  1  0  0  0  0  0  0
  1  3  1  0  0  0  0
  2  1  1  0  0  0  0
  4  7  1  0  0  0  0
  4  1  1  0  0  0  0
  4  5  1  0  0  0  0
  6  4  1  0  0  0  0
  8 10  1  0  0  0  0
  8  1  1  0  0  0  0
  8 11  1  0  0  0  0
  9  8  1  0  0  0  0
 11 13  1  0  0  0  0
 12 11  1  0  0  0  0
 14 11  1  0  0  0  0
M  END
$$$$
Title Card Required
 OpenBabel07152211483D

 14 13  0  0  0  0  0  0  0  0999 V2000
   -0.9801    0.9683    0.1225 C   0  0  0  0  0  0  0  0  0  0  0  0
   -0.2803    1.7711   -0.5586 H   0  0  0  0  0  0  0  0  0  0  0  0
   -1.0849    1.1612    1.1996 H   0  0  0  0  0  0  0  0  0  0  0  0
   -0.2598   -0.3758   -0.0884 C   0  0  0  0  0  0  0  0  0  0  0  0
   -0.3256   -1.2622    0.6435 H   0  0  0  0  0  0  0  0  0  0  0  0
   -0.6135   -0.5930   -1.1918 H   0  0  0  0  0  0  0  0  0  0  0  0
    1.7934   -0.0114    0.0247 Br  0  0  0  0  0  0  0  0  0  0  0  0
   -2.4845    1.1291   -0.3012 C   0  0  0  0  0  0  0  0  0  0  0  0
   -2.4511    1.0948   -1.3215 H   0  0  0  0  0  0  0  0  0  0  0  0
   -2.9645    2.1320   -0.1887 H   0  0  0  0  0  0  0  0  0  0  0  0
   -3.2791   -0.1905    0.2005 C   0  0  0  0  0  0  0  0  0  0  0  0
   -4.2345   -0.1870   -0.3399 H   0  0  0  0  0  0  0  0  0  0  0  0
   -3.4356   -0.0028    1.2576 H   0  0  0  0  0  0  0  0  0  0  0  0
   -2.6247   -1.3518   -0.0403 O   0  0  0  0  0  1  0  0  0  0  0  0
  1  3  1  0  0  0  0
  2  1  1  0  0  0  0
  4  7  1  0  0  0  0
  4  1  1  0  0  0  0
  4  5  1  0  0  0  0
  6  4  1  0  0  0  0
  8 10  1  0  0  0  0
  8  1  1  0  0  0  0
  8 11  1  0  0  0  0
  9  8  1  0  0  0  0
 11 13  1  0  0  0  0
 12 11  1  0  0  0  0
 14 11  1  0  0  0  0
M  END
$$$$
Title Card Required
 OpenBabel07152211483D

 14 13  0  0  0  0  0  0  0  0999 V2000
   -0.9801    0.9698    0.1232 C   0  0  0  0  0  0  0  0  0  0  0  0
   -0.2829    1.7550   -0.5096 H   0  0  0  0  0  0  0  0  0  0  0  0
   -0.9590    1.2003    1.2261 H   0  0  0  0  0  0  0  0  0  0  0  0
   -0.2733   -0.3823   -0.1020 C   0  0  0  0  0  0  0  0  0  0  0  0
   -0.3930   -1.1617    0.6426 H   0  0  0  0  0  0  0  0  0  0  0  0
   -0.5822   -0.6316   -1.1716 H   0  0  0  0  0  0  0  0  0  0  0  0
    1.7971   -0.0105    0.0257 Br  0  0  0  0  0  0  0  0  0  0  0  0
   -2.4950    1.1210   -0.3001 C   0  0  0  0  0  0  0  0  0  0  0  0
   -2.4389    1.1154   -1.3730 H   0  0  0  0  0  0  0  0  0  0  0  0
   -2.9608    2.1525   -0.1863 H   0  0  0  0  0  0  0  0  0  0  0  0
   -3.2724   -0.1703    0.2032 C   0  0  0  0  0  0  0  0  0  0  0  0
   -4.2466   -0.2829   -0.3316 H   0  0  0  0  0  0  0  0  0  0  0  0
   -3.4684   -0.0270    1.2755 H   0  0  0  0  0  0  0  0  0  0  0  0
   -2.6336   -1.3619   -0.0433 O   0  0  0  0  0  1  0  0  0  0  0  0
  1  3  1  0  0  0  0
  2  1  1  0  0  0  0
  4  7  1  0  0  0  0
  4  1  1  0  0  0  0
  4  5  1  0  0  0  0
  6  4  1  0  0  0  0
  8 10  1  0  0  0  0
  8  1  1  0  0  0  0
  8 11  1  0  0  0  0
  9  8  1  0  0  0  0
 11 13  1  0  0  0  0
 12 11  1  0  0  0  0
 14 11  1  0  0  0  0
M  END
$$$$
Title Card Required
 OpenBabel07152211483D

 14 13  0  0  0  0  0  0  0  0999 V2000
   -0.9791    0.9739    0.1245 C   0  0  0  0  0  0  0  0  0  0  0  0
   -0.3140    1.7173   -0.4362 H   0  0  0  0  0  0  0  0  0  0  0  0
   -0.8358    1.2391    1.2390 H   0  0  0  0  0  0  0  0  0  0  0  0
   -0.2876   -0.3870   -0.1169 C   0  0  0  0  0  0  0  0  0  0  0  0
   -0.4598   -1.0703    0.6384 H   0  0  0  0  0  0  0  0  0  0  0  0
   -0.5361   -0.6770   -1.1313 H   0  0  0  0  0  0  0  0  0  0  0  0
    1.8004   -0.0097    0.0267 Br  0  0  0  0  0  0  0  0  0  0  0  0
   -2.5036    1.1123   -0.2991 C   0  0  0  0  0  0  0  0  0  0  0  0
   -2.4314    1.1238   -1.4444 H   0  0  0  0  0  0  0  0  0  0  0  0
   -2.9478    2.1578   -0.1685 H   0  0  0  0  0  0  0  0  0  0  0  0
   -3.2651   -0.1544    0.2038 C   0  0  0  0  0  0  0  0  0  0  0  0
   -4.2673   -0.3518   -0.3210 H   0  0  0  0  0  0  0  0  0  0  0  0
   -3.5046   -0.0407    1.3055 H   0  0  0  0  0  0  0  0  0  0  0  0
   -2.6412   -1.3694   -0.0458 O   0  0  0  0  0  1  0  0  0  0  0  0
  1  3  1  0  0  0  0
  2  1  1  0  0  0  0
  4  7  1  0  0  0  0
  4  1  1  0  0  0  0
  4  5  1  0  0  0  0
  6  4  1  0  0  0  0
  8 10  1  0  0  0  0
  8  1  1  0  0  0  0
  8 11  1  0  0  0  0
  9  8  1  0  0  0  0
 11 13  1  0  0  0  0
 12 11  1  0  0  0  0
 14 11  1  0  0  0  0
M  END
$$$$
Title Card Required
 OpenBabel07152211483D

 14 13  0  0  0  0  0  0  0  0999 V2000
   -0.9771    0.9800    0.1275 C   0  0  0  0  0  0  0  0  0  0  0  0
   -0.3620    1.6722   -0.3521 H   0  0  0  0  0  0  0  0  0  0  0  0
   -0.7123    1.2747    1.2306 H   0  0  0  0  0  0  0  0  0  0  0  0
   -0.3035   -0.3879   -0.1338 C   0  0  0  0  0  0  0  0  0  0  0  0
   -0.5340   -1.0043    0.6541 H   0  0  0  0  0  0  0  0  0  0  0  0
   -0.4801   -0.7374   -1.0927 H   0  0  0  0  0  0  0  0  0  0  0  0
    1.8038   -0.0089    0.0276 Br  0  0  0  0  0  0  0  0  0  0  0  0
   -2.5109    1.1027   -0.3006 C   0  0  0  0  0  0  0  0  0  0  0  0
   -2.4291    1.1228   -1.5024 H   0  0  0  0  0  0  0  0  0  0  0  0
   -2.9261    2.1455   -0.1369 H   0  0  0  0  0  0  0  0  0  0  0  0
   -3.2584   -0.1421    0.2033 C   0  0  0  0  0  0  0  0  0  0  0  0
   -4.2872   -0.3959   -0.3025 H   0  0  0  0  0  0  0  0  0  0  0  0
   -3.5420   -0.0454    1.3346 H   0  0  0  0  0  0  0  0  0  0  0  0
   -2.6483   -1.3750   -0.0480 O   0  0  0  0  0  1  0  0  0  0  0  0
  1  3  1  0  0  0  0
  2  1  1  0  0  0  0
  4  7  1  0  0  0  0
  4  1  1  0  0  0  0
  4  5  1  0  0  0  0
  6  4  1  0  0  0  0
  8 10  1  0  0  0  0
  8  1  1  0  0  0  0
  8 11  1  0  0  0  0
  9  8  1  0  0  0  0
 11 13  1  0  0  0  0
 12 11  1  0  0  0  0
 14 11  1  0  0  0  0
M  END
$$$$
Title Card Required
 OpenBabel07152211483D

 14 13  0  0  0  0  0  0  0  0999 V2000
   -0.9761    0.9857    0.1352 C   0  0  0  0  0  0  0  0  0  0  0  0
   -0.3988    1.6597   -0.2892 H   0  0  0  0  0  0  0  0  0  0  0  0
   -0.5920    1.3007    1.1929 H   0  0  0  0  0  0  0  0  0  0  0  0
   -0.3224   -0.3829   -0.1517 C   0  0  0  0  0  0  0  0  0  0  0  0
   -0.6219   -0.9730    0.7020 H   0  0  0  0  0  0  0  0  0  0  0  0
   -0.4158   -0.8300   -1.0870 H   0  0  0  0  0  0  0  0  0  0  0  0
    1.8075   -0.0081    0.0287 Br  0  0  0  0  0  0  0  0  0  0  0  0
   -2.5163    1.0918   -0.3066 C   0  0  0  0  0  0  0  0  0  0  0  0
   -2.4344    1.1103   -1.5211 H   0  0  0  0  0  0  0  0  0  0  0  0
   -2.8961    2.1118   -0.0876 H   0  0  0  0  0  0  0  0  0  0  0  0
   -3.2537   -0.1348    0.2024 C   0  0  0  0  0  0  0  0  0  0  0  0
   -4.2977   -0.4047   -0.2702 H   0  0  0  0  0  0  0  0  0  0  0  0
   -3.5757   -0.0375    1.3483 H   0  0  0  0  0  0  0  0  0  0  0  0
   -2.6554   -1.3784   -0.0501 O   0  0  0  0  0  1  0  0  0  0  0  0
  1  3  1  0  0  0  0
  2  1  1  0  0  0  0
  4  7  1  0  0  0  0
  4  1  1  0  0  0  0
  4  5  1  0  0  0  0
  6  4  1  0  0  0  0
  8 10  1  0  0  0  0
  8  1  1  0  0  0  0
  8 11  1  0  0  0  0
  9  8  1  0  0  0  0
 11 13  1  0  0  0  0
 12 11  1  0  0  0  0
 14 11  1  0  0  0  0
M  END
$$$$
Title Card Required
 OpenBabel07152211483D

 14 13  0  0  0  0  0  0  0  0999 V2000
   -0.9783    0.9866    0.1475 C   0  0  0  0  0  0  0  0  0  0  0  0
   -0.3829    1.7305   -0.3006 H   0  0  0  0  0  0  0  0  0  0  0  0
   -0.5089    1.3045    1.1380 H   0  0  0  0  0  0  0  0  0  0  0  0
   -0.3427   -0.3741   -0.1646 C   0  0  0  0  0  0  0  0  0  0  0  0
   -0.6986   -0.9684    0.7476 H   0  0  0  0  0  0  0  0  0  0  0  0
   -0.3549   -0.9406   -1.1184 H   0  0  0  0  0  0  0  0  0  0  0  0
    1.8111   -0.0073    0.0297 Br  0  0  0  0  0  0  0  0  0  0  0  0
   -2.5173    1.0809   -0.3169 C   0  0  0  0  0  0  0  0  0  0  0  0
   -2.4480    1.0876   -1.4810 H   0  0  0  0  0  0  0  0  0  0  0  0
   -2.8695    2.0689   -0.0271 H   0  0  0  0  0  0  0  0  0  0  0  0
   -3.2534   -0.1362    0.2020 C   0  0  0  0  0  0  0  0  0  0  0  0
   -4.2928   -0.3651   -0.2296 H   0  0  0  0  0  0  0  0  0  0  0  0
   -3.5912   -0.0150    1.3331 H   0  0  0  0  0  0  0  0  0  0  0  0
   -2.6611   -1.3782   -0.0515 O   0  0  0  0  0  1  0  0  0  0  0  0
  1  3  1  0  0  0  0
  2  1  1  0  0  0  0
  4  7  1  0  0  0  0
  4  1  1  0  0  0  0
  4  5  1  0  0  0  0
  6  4  1  0  0  0  0
  8 10  1  0  0  0  0
  8  1  1  0  0  0  0
  8 11  1  0  0  0  0
  9  8  1  0  0  0  0
 11 13  1  0  0  0  0
 12 11  1  0  0  0  0
 14 11  1  0  0  0  0
M  END
$$$$
Title Card Required
 OpenBabel07152211483D

 14 13  0  0  0  0  0  0  0  0999 V2000
   -0.9803    0.9865    0.1587 C   0  0  0  0  0  0  0  0  0  0  0  0
   -0.3526    1.8352   -0.3619 H   0  0  0  0  0  0  0  0  0  0  0  0
   -0.4714    1.2868    1.0898 H   0  0  0  0  0  0  0  0  0  0  0  0
   -0.3640   -0.3667   -0.1725 C   0  0  0  0  0  0  0  0  0  0  0  0
   -0.7464   -0.9689    0.7542 H   0  0  0  0  0  0  0  0  0  0  0  0
   -0.3029   -1.0333   -1.1389 H   0  0  0  0  0  0  0  0  0  0  0  0
    1.8145   -0.0066    0.0307 Br  0  0  0  0  0  0  0  0  0  0  0  0
   -2.5137    1.0695   -0.3282 C   0  0  0  0  0  0  0  0  0  0  0  0
   -2.4663    1.0599   -1.4051 H   0  0  0  0  0  0  0  0  0  0  0  0
   -2.8555    2.0335    0.0387 H   0  0  0  0  0  0  0  0  0  0  0  0
   -3.2571   -0.1456    0.2026 C   0  0  0  0  0  0  0  0  0  0  0  0
   -4.2828   -0.2854   -0.1930 H   0  0  0  0  0  0  0  0  0  0  0  0
   -3.5842    0.0191    1.2961 H   0  0  0  0  0  0  0  0  0  0  0  0
   -2.6656   -1.3745   -0.0522 O   0  0  0  0  0  1  0  0  0  0  0  0
  1  3  1  0  0  0  0
  2  1  1  0  0  0  0
  4  7  1  0  0  0  0
  4  1  1  0  0  0  0
  4  5  1  0  0  0  0
  6  4  1  0  0  0  0
  8 10  1  0  0  0  0
  8  1  1  0  0  0  0
  8 11  1  0  0  0  0
  9  8  1  0  0  0  0
 11 13  1  0  0  0  0
 12 11  1  0  0  0  0
 14 11  1  0  0  0  0
M  END
$$$$
Title Card Required
 OpenBabel07152211483D

 14 13  0  0  0  0  0  0  0  0999 V2000
   -0.9789    0.9904    0.1630 C   0  0  0  0  0  0  0  0  0  0  0  0
   -0.3548    1.9153   -0.4381 H   0  0  0  0  0  0  0  0  0  0  0  0
   -0.4721    1.2533    1.0686 H   0  0  0  0  0  0  0  0  0  0  0  0
   -0.3880   -0.3636   -0.1779 C   0  0  0  0  0  0  0  0  0  0  0  0
   -0.7623   -0.9678    0.7090 H   0  0  0  0  0  0  0  0  0  0  0  0
   -0.2626   -1.0836   -1.1132 H   0  0  0  0  0  0  0  0  0  0  0  0
    1.8180   -0.0058    0.0319 Br  0  0  0  0  0  0  0  0  0  0  0  0
   -2.5051    1.0562   -0.3353 C   0  0  0  0  0  0  0  0  0  0  0  0
   -2.4865    1.0291   -1.3446 H   0  0  0  0  0  0  0  0  0  0  0  0
   -2.8567    2.0057    0.1102 H   0  0  0  0  0  0  0  0  0  0  0  0
   -3.2632   -0.1628    0.2040 C   0  0  0  0  0  0  0  0  0  0  0  0
   -4.2873   -0.1665   -0.1718 H   0  0  0  0  0  0  0  0  0  0  0  0
   -3.5531    0.0652    1.2525 H   0  0  0  0  0  0  0  0  0  0  0  0
   -2.6696   -1.3671   -0.0523 O   0  0  0  0  0  1  0  0  0  0  0  0
  1  3  1  0  0  0  0
  2  1  1  0  0  0  0
  4  7  1  0  0  0  0
  4  1  1  0  0  0  0
  4  5  1  0  0  0  0
  6  4  1  0  0  0  0
  8 10  1  0  0  0  0
  8  1  1  0  0  0  0
  8 11  1  0  0  0  0
  9  8  1  0  0  0  0
 11 13  1  0  0  0  0
 12 11  1  0  0  0  0
 14 11  1  0  0  0  0
M  END
$$$$
Title Card Required
 OpenBabel07152211483D

 14 13  0  0  0  0  0  0  0  0999 V2000
   -0.9741    0.9994    0.1550 C   0  0  0  0  0  0  0  0  0  0  0  0
   -0.4044    1.9279   -0.4935 H   0  0  0  0  0  0  0  0  0  0  0  0
   -0.5026    1.2195    1.0958 H   0  0  0  0  0  0  0  0  0  0  0  0
   -0.4104   -0.3660   -0.1817 C   0  0  0  0  0  0  0  0  0  0  0  0
   -0.7469   -0.9718    0.6345 H   0  0  0  0  0  0  0  0  0  0  0  0
   -0.2471   -1.0712   -1.0454 H   0  0  0  0  0  0  0  0  0  0  0  0
    1.8213   -0.0052    0.0331 Br  0  0  0  0  0  0  0  0  0  0  0  0
   -2.4934    1.0433   -0.3298 C   0  0  0  0  0  0  0  0  0  0  0  0
   -2.5022    1.0040   -1.3767 H   0  0  0  0  0  0  0  0  0  0  0  0
   -2.8706    1.9797    0.1654 H   0  0  0  0  0  0  0  0  0  0  0  0
   -3.2688   -0.1835    0.2049 C   0  0  0  0  0  0  0  0  0  0  0  0
   -4.3179   -0.0362   -0.1780 H   0  0  0  0  0  0  0  0  0  0  0  0
   -3.5058    0.1128    1.2354 H   0  0  0  0  0  0  0  0  0  0  0  0
   -2.6732   -1.3572   -0.0519 O   0  0  0  0  0  1  0  0  0  0  0  0
  1  3  1  0  0  0  0
  2  1  1  0  0  0  0
  4  7  1  0  0  0  0
  4  1  1  0  0  0  0
  4  5  1  0  0  0  0
  6  4  1  0  0  0  0
  8  1  1  0  0  0  0
  8 10  1  0  0  0  0
  8 11  1  0  0  0  0
  9  8  1  0  0  0  0
 11 13  1  0  0  0  0
 12 11  1  0  0  0  0
 14 11  1  0  0  0  0
M  END
$$$$
Title Card Required
 OpenBabel07152211483D

 14 13  0  0  0  0  0  0  0  0999 V2000
   -0.9679    1.0106    0.1383 C   0  0  0  0  0  0  0  0  0  0  0  0
   -0.4773    1.8855   -0.5169 H   0  0  0  0  0  0  0  0  0  0  0  0
   -0.5523    1.1932    1.1488 H   0  0  0  0  0  0  0  0  0  0  0  0
   -0.4279   -0.3694   -0.1845 C   0  0  0  0  0  0  0  0  0  0  0  0
   -0.7209   -0.9947    0.5823 H   0  0  0  0  0  0  0  0  0  0  0  0
   -0.2524   -1.0247   -0.9831 H   0  0  0  0  0  0  0  0  0  0  0  0
    1.8240   -0.0047    0.0342 Br  0  0  0  0  0  0  0  0  0  0  0  0
   -2.4814    1.0324   -0.3168 C   0  0  0  0  0  0  0  0  0  0  0  0
   -2.5125    0.9902   -1.4515 H   0  0  0  0  0  0  0  0  0  0  0  0
   -2.8894    1.9516    0.1929 H   0  0  0  0  0  0  0  0  0  0  0  0
   -3.2734   -0.2019    0.2045 C   0  0  0  0  0  0  0  0  0  0  0  0
   -4.3518    0.0747   -0.1995 H   0  0  0  0  0  0  0  0  0  0  0  0
   -3.4564    0.1497    1.2518 H   0  0  0  0  0  0  0  0  0  0  0  0
   -2.6765   -1.3474   -0.0514 O   0  0  0  0  0  1  0  0  0  0  0  0
  1  3  1  0  0  0  0
  2  1  1  0  0  0  0
  4  7  1  0  0  0  0
  4  1  1  0  0  0  0
  4  5  1  0  0  0  0
  6  4  1  0  0  0  0
  8  1  1  0  0  0  0
  8 10  1  0  0  0  0
  8 11  1  0  0  0  0
  9  8  1  0  0  0  0
 11 13  1  0  0  0  0
 12 11  1  0  0  0  0
 14 11  1  0  0  0  0
M  END
$$$$
Title Card Required
 OpenBabel07152211483D

 14 13  0  0  0  0  0  0  0  0999 V2000
   -0.9607    1.0230    0.1158 C   0  0  0  0  0  0  0  0  0  0  0  0
   -0.5603    1.8077   -0.5187 H   0  0  0  0  0  0  0  0  0  0  0  0
   -0.6261    1.1702    1.2032 H   0  0  0  0  0  0  0  0  0  0  0  0
   -0.4427   -0.3698   -0.1854 C   0  0  0  0  0  0  0  0  0  0  0  0
   -0.6940   -1.0467    0.5718 H   0  0  0  0  0  0  0  0  0  0  0  0
   -0.2665   -0.9772   -0.9662 H   0  0  0  0  0  0  0  0  0  0  0  0
    1.8266   -0.0042    0.0353 Br  0  0  0  0  0  0  0  0  0  0  0  0
   -2.4688    1.0220   -0.3018 C   0  0  0  0  0  0  0  0  0  0  0  0
   -2.5191    0.9874   -1.5079 H   0  0  0  0  0  0  0  0  0  0  0  0
   -2.9116    1.9193    0.1982 H   0  0  0  0  0  0  0  0  0  0  0  0
   -3.2786   -0.2174    0.2033 C   0  0  0  0  0  0  0  0  0  0  0  0
   -4.3727    0.1666   -0.2241 H   0  0  0  0  0  0  0  0  0  0  0  0
   -3.4051    0.1730    1.2876 H   0  0  0  0  0  0  0  0  0  0  0  0
   -2.6802   -1.3374   -0.0510 O   0  0  0  0  0  1  0  0  0  0  0  0
  1  3  1  0  0  0  0
  2  1  1  0  0  0  0
  4  7  1  0  0  0  0
  4  1  1  0  0  0  0
  4  5  1  0  0  0  0
  6  4  1  0  0  0  0
  8  1  1  0  0  0  0
  8 10  1  0  0  0  0
  8 11  1  0  0  0  0
  9  8  1  0  0  0  0
 11 13  1  0  0  0  0
 12 11  1  0  0  0  0
 14 11  1  0  0  0  0
M  END
$$$$
Title Card Required
 OpenBabel07152211483D

 14 13  0  0  0  0  0  0  0  0999 V2000
   -0.9544    1.0331    0.0912 C   0  0  0  0  0  0  0  0  0  0  0  0
   -0.6280    1.7320   -0.5254 H   0  0  0  0  0  0  0  0  0  0  0  0
   -0.7293    1.1511    1.2337 H   0  0  0  0  0  0  0  0  0  0  0  0
   -0.4562   -0.3657   -0.1812 C   0  0  0  0  0  0  0  0  0  0  0  0
   -0.6636   -1.1195    0.5977 H   0  0  0  0  0  0  0  0  0  0  0  0
   -0.2831   -0.9490   -1.0318 H   0  0  0  0  0  0  0  0  0  0  0  0
    1.8293   -0.0039    0.0366 Br  0  0  0  0  0  0  0  0  0  0  0  0
   -2.4556    1.0109   -0.2874 C   0  0  0  0  0  0  0  0  0  0  0  0
   -2.5212    0.9963   -1.5136 H   0  0  0  0  0  0  0  0  0  0  0  0
   -2.9379    1.8863    0.1826 H   0  0  0  0  0  0  0  0  0  0  0  0
   -3.2847   -0.2279    0.2025 C   0  0  0  0  0  0  0  0  0  0  0  0
   -4.3701    0.2313   -0.2440 H   0  0  0  0  0  0  0  0  0  0  0  0
   -3.3538    0.1748    1.3284 H   0  0  0  0  0  0  0  0  0  0  0  0
   -2.6848   -1.3276   -0.0510 O   0  0  0  0  0  1  0  0  0  0  0  0
  1  3  1  0  0  0  0
  2  1  1  0  0  0  0
  4  7  1  0  0  0  0
  4  1  1  0  0  0  0
  4  5  1  0  0  0  0
  6  4  1  0  0  0  0
  8  1  1  0  0  0  0
  8 10  1  0  0  0  0
  8 11  1  0  0  0  0
  9  8  1  0  0  0  0
 11 13  1  0  0  0  0
 12 11  1  0  0  0  0
 14 11  1  0  0  0  0
M  END
$$$$
Title Card Required
 OpenBabel07152211483D

 14 13  0  0  0  0  0  0  0  0999 V2000
   -0.9533    1.0337    0.0723 C   0  0  0  0  0  0  0  0  0  0  0  0
   -0.6353    1.7319   -0.5900 H   0  0  0  0  0  0  0  0  0  0  0  0
   -0.8519    1.1425    1.2179 H   0  0  0  0  0  0  0  0  0  0  0  0
   -0.4673   -0.3613   -0.1718 C   0  0  0  0  0  0  0  0  0  0  0  0
   -0.6237   -1.1783    0.6280 H   0  0  0  0  0  0  0  0  0  0  0  0
   -0.3089   -0.9205   -1.1523 H   0  0  0  0  0  0  0  0  0  0  0  0
    1.8319   -0.0036    0.0379 Br  0  0  0  0  0  0  0  0  0  0  0  0
   -2.4436    0.9991   -0.2762 C   0  0  0  0  0  0  0  0  0  0  0  0
   -2.5179    1.0153   -1.4555 H   0  0  0  0  0  0  0  0  0  0  0  0
   -2.9670    1.8629    0.1505 H   0  0  0  0  0  0  0  0  0  0  0  0
   -3.2908   -0.2298    0.2034 C   0  0  0  0  0  0  0  0  0  0  0  0
   -4.3392    0.2533   -0.2514 H   0  0  0  0  0  0  0  0  0  0  0  0
   -3.3112    0.1477    1.3584 H   0  0  0  0  0  0  0  0  0  0  0  0
   -2.6904   -1.3194   -0.0518 O   0  0  0  0  0  1  0  0  0  0  0  0
  1  3  1  0  0  0  0
  2  1  1  0  0  0  0
  4  7  1  0  0  0  0
  4  1  1  0  0  0  0
  4  5  1  0  0  0  0
  6  4  1  0  0  0  0
  8  1  1  0  0  0  0
  8 10  1  0  0  0  0
  8 11  1  0  0  0  0
  9  8  1  0  0  0  0
 11 13  1  0  0  0  0
 12 11  1  0  0  0  0
 14 11  1  0  0  0  0
M  END
$$$$
Title Card Required
 OpenBabel07152211483D

 14 13  0  0  0  0  0  0  0  0999 V2000
   -0.9575    1.0265    0.0607 C   0  0  0  0  0  0  0  0  0  0  0  0
   -0.5914    1.7878   -0.6831 H   0  0  0  0  0  0  0  0  0  0  0  0
   -0.9623    1.1499    1.1658 H   0  0  0  0  0  0  0  0  0  0  0  0
   -0.4739   -0.3620   -0.1624 C   0  0  0  0  0  0  0  0  0  0  0  0
   -0.5786   -1.1941    0.6327 H   0  0  0  0  0  0  0  0  0  0  0  0
   -0.3486   -0.8650   -1.2458 H   0  0  0  0  0  0  0  0  0  0  0  0
    1.8342   -0.0034    0.0391 Br  0  0  0  0  0  0  0  0  0  0  0  0
   -2.4350    0.9883   -0.2696 C   0  0  0  0  0  0  0  0  0  0  0  0
   -2.5123    1.0368   -1.3634 H   0  0  0  0  0  0  0  0  0  0  0  0
   -2.9926    1.8570    0.1137 H   0  0  0  0  0  0  0  0  0  0  0  0
   -3.2952   -0.2229    0.2068 C   0  0  0  0  0  0  0  0  0  0  0  0
   -4.2918    0.2308   -0.2441 H   0  0  0  0  0  0  0  0  0  0  0  0
   -3.2882    0.0993    1.3692 H   0  0  0  0  0  0  0  0  0  0  0  0
   -2.6960   -1.3146   -0.0536 O   0  0  0  0  0  1  0  0  0  0  0  0
  1  3  1  0  0  0  0
  2  1  1  0  0  0  0
  4  7  1  0  0  0  0
  4  1  1  0  0  0  0
  4  5  1  0  0  0  0
  6  4  1  0  0  0  0
  8  1  1  0  0  0  0
  8 10  1  0  0  0  0
  8 11  1  0  0  0  0
  9  8  1  0  0  0  0
 11 13  1  0  0  0  0
 12 11  1  0  0  0  0
 14 11  1  0  0  0  0
M  END
$$$$
Title Card Required
 OpenBabel07152211483D

 14 13  0  0  0  0  0  0  0  0999 V2000
   -0.9650    1.0170    0.0492 C   0  0  0  0  0  0  0  0  0  0  0  0
   -0.5309    1.8354   -0.7500 H   0  0  0  0  0  0  0  0  0  0  0  0
   -1.0553    1.1772    1.1028 H   0  0  0  0  0  0  0  0  0  0  0  0
   -0.4768   -0.3682   -0.1555 C   0  0  0  0  0  0  0  0  0  0  0  0
   -0.5292   -1.1714    0.6104 H   0  0  0  0  0  0  0  0  0  0  0  0
   -0.4042   -0.7746   -1.2852 H   0  0  0  0  0  0  0  0  0  0  0  0
    1.8364   -0.0033    0.0404 Br  0  0  0  0  0  0  0  0  0  0  0  0
   -2.4296    0.9784   -0.2642 C   0  0  0  0  0  0  0  0  0  0  0  0
   -2.5097    1.0572   -1.2802 H   0  0  0  0  0  0  0  0  0  0  0  0
   -3.0111    1.8660    0.0753 H   0  0  0  0  0  0  0  0  0  0  0  0
   -3.2968   -0.2082    0.2133 C   0  0  0  0  0  0  0  0  0  0  0  0
   -4.2417    0.1723   -0.2259 H   0  0  0  0  0  0  0  0  0  0  0  0
   -3.2857    0.0348    1.3640 H   0  0  0  0  0  0  0  0  0  0  0  0
   -2.7020   -1.3130   -0.0569 O   0  0  0  0  0  1  0  0  0  0  0  0
  1  3  1  0  0  0  0
  2  1  1  0  0  0  0
  4  7  1  0  0  0  0
  4  1  1  0  0  0  0
  4  5  1  0  0  0  0
  6  4  1  0  0  0  0
  8  1  1  0  0  0  0
  8 10  1  0  0  0  0
  8 11  1  0  0  0  0
  9  8  1  0  0  0  0
 11 13  1  0  0  0  0
 12 11  1  0  0  0  0
 14 11  1  0  0  0  0
M  END
$$$$
Title Card Required
 OpenBabel07152211483D

 14 13  0  0  0  0  0  0  0  0999 V2000
   -0.9742    1.0080    0.0332 C   0  0  0  0  0  0  0  0  0  0  0  0
   -0.4762    1.8361   -0.7546 H   0  0  0  0  0  0  0  0  0  0  0  0
   -1.1197    1.2316    1.0621 H   0  0  0  0  0  0  0  0  0  0  0  0
   -0.4760   -0.3782   -0.1536 C   0  0  0  0  0  0  0  0  0  0  0  0
   -0.4790   -1.1283    0.5760 H   0  0  0  0  0  0  0  0  0  0  0  0
   -0.4723   -0.6566   -1.2598 H   0  0  0  0  0  0  0  0  0  0  0  0
    1.8386   -0.0032    0.0417 Br  0  0  0  0  0  0  0  0  0  0  0  0
   -2.4287    0.9704   -0.2561 C   0  0  0  0  0  0  0  0  0  0  0  0
   -2.5182    1.0738   -1.2729 H   0  0  0  0  0  0  0  0  0  0  0  0
   -3.0144    1.8864    0.0393 H   0  0  0  0  0  0  0  0  0  0  0  0
   -3.2928   -0.1873    0.2243 C   0  0  0  0  0  0  0  0  0  0  0  0
   -4.2193    0.0892   -0.2071 H   0  0  0  0  0  0  0  0  0  0  0  0
   -3.3082   -0.0382    1.3487 H   0  0  0  0  0  0  0  0  0  0  0  0
   -2.7079   -1.3148   -0.0621 O   0  0  0  0  0  1  0  0  0  0  0  0
  1  3  1  0  0  0  0
  2  1  1  0  0  0  0
  4  1  1  0  0  0  0
  4  7  1  0  0  0  0
  4  5  1  0  0  0  0
  6  4  1  0  0  0  0
  8  1  1  0  0  0  0
  8 10  1  0  0  0  0
  8 11  1  0  0  0  0
  9  8  1  0  0  0  0
 11 13  1  0  0  0  0
 12 11  1  0  0  0  0
 14 11  1  0  0  0  0
M  END
$$$$
Title Card Required
 OpenBabel07152211483D

 14 13  0  0  0  0  0  0  0  0999 V2000
   -0.9830    1.0013    0.0158 C   0  0  0  0  0  0  0  0  0  0  0  0
   -0.4451    1.7869   -0.6980 H   0  0  0  0  0  0  0  0  0  0  0  0
   -1.1402    1.3025    1.0583 H   0  0  0  0  0  0  0  0  0  0  0  0
   -0.4726   -0.3856   -0.1577 C   0  0  0  0  0  0  0  0  0  0  0  0
   -0.4379   -1.1089    0.5653 H   0  0  0  0  0  0  0  0  0  0  0  0
   -0.5352   -0.5517   -1.2004 H   0  0  0  0  0  0  0  0  0  0  0  0
    1.8406   -0.0032    0.0429 Br  0  0  0  0  0  0  0  0  0  0  0  0
   -2.4331    0.9669   -0.2479 C   0  0  0  0  0  0  0  0  0  0  0  0
   -2.5383    1.0793   -1.3415 H   0  0  0  0  0  0  0  0  0  0  0  0
   -2.9981    1.9099    0.0143 H   0  0  0  0  0  0  0  0  0  0  0  0
   -3.2824   -0.1669    0.2378 C   0  0  0  0  0  0  0  0  0  0  0  0
   -4.2519    0.0107   -0.2019 H   0  0  0  0  0  0  0  0  0  0  0  0
   -3.3497   -0.0976    1.3402 H   0  0  0  0  0  0  0  0  0  0  0  0
   -2.7125   -1.3193   -0.0685 O   0  0  0  0  0  1  0  0  0  0  0  0
  1  3  1  0  0  0  0
  2  1  1  0  0  0  0
  4  1  1  0  0  0  0
  4  7  1  0  0  0  0
  4  5  1  0  0  0  0
  6  4  1  0  0  0  0
  8 10  1  0  0  0  0
  8  1  1  0  0  0  0
  8 11  1  0  0  0  0
  9  8  1  0  0  0  0
 11 13  1  0  0  0  0
 12 11  1  0  0  0  0
 14 11  1  0  0  0  0
M  END
$$$$
Title Card Required
 OpenBabel07152211483D

 14 13  0  0  0  0  0  0  0  0999 V2000
   -0.9912    0.9965    0.0011 C   0  0  0  0  0  0  0  0  0  0  0  0
   -0.4327    1.7087   -0.6080 H   0  0  0  0  0  0  0  0  0  0  0  0
   -1.1209    1.3769    1.0667 H   0  0  0  0  0  0  0  0  0  0  0  0
   -0.4679   -0.3880   -0.1636 C   0  0  0  0  0  0  0  0  0  0  0  0
   -0.4039   -1.1263    0.5858 H   0  0  0  0  0  0  0  0  0  0  0  0
   -0.5898   -0.4793   -1.1646 H   0  0  0  0  0  0  0  0  0  0  0  0
    1.8424   -0.0032    0.0441 Br  0  0  0  0  0  0  0  0  0  0  0  0
   -2.4428    0.9682   -0.2447 C   0  0  0  0  0  0  0  0  0  0  0  0
   -2.5644    1.0690   -1.4194 H   0  0  0  0  0  0  0  0  0  0  0  0
   -2.9651    1.9332   -0.0010 H   0  0  0  0  0  0  0  0  0  0  0  0
   -3.2687   -0.1491    0.2518 C   0  0  0  0  0  0  0  0  0  0  0  0
   -4.3157   -0.0583   -0.2032 H   0  0  0  0  0  0  0  0  0  0  0  0
   -3.4028   -0.1388    1.3487 H   0  0  0  0  0  0  0  0  0  0  0  0
   -2.7155   -1.3252   -0.0758 O   0  0  0  0  0  1  0  0  0  0  0  0
  1  3  1  0  0  0  0
  2  1  1  0  0  0  0
  4  1  1  0  0  0  0
  4  7  1  0  0  0  0
  4  5  1  0  0  0  0
  6  4  1  0  0  0  0
  8 10  1  0  0  0  0
  8  1  1  0  0  0  0
  8 11  1  0  0  0  0
  9  8  1  0  0  0  0
 11 13  1  0  0  0  0
 12 11  1  0  0  0  0
 14 11  1  0  0  0  0
M  END
$$$$
Title Card Required
 OpenBabel07152211483D

 14 13  0  0  0  0  0  0  0  0999 V2000
   -1.0014    0.9915   -0.0069 C   0  0  0  0  0  0  0  0  0  0  0  0
   -0.4176    1.6296   -0.5154 H   0  0  0  0  0  0  0  0  0  0  0  0
   -1.0610    1.4468    1.0642 H   0  0  0  0  0  0  0  0  0  0  0  0
   -0.4614   -0.3865   -0.1663 C   0  0  0  0  0  0  0  0  0  0  0  0
   -0.3756   -1.1650    0.6167 H   0  0  0  0  0  0  0  0  0  0  0  0
   -0.6419   -0.4476   -1.1956 H   0  0  0  0  0  0  0  0  0  0  0  0
    1.8443   -0.0033    0.0452 Br  0  0  0  0  0  0  0  0  0  0  0  0
   -2.4584    0.9756   -0.2502 C   0  0  0  0  0  0  0  0  0  0  0  0
   -2.5950    1.0389   -1.4671 H   0  0  0  0  0  0  0  0  0  0  0  0
   -2.9159    1.9578   -0.0088 H   0  0  0  0  0  0  0  0  0  0  0  0
   -3.2545   -0.1349    0.2664 C   0  0  0  0  0  0  0  0  0  0  0  0
   -4.3791   -0.1198   -0.1964 H   0  0  0  0  0  0  0  0  0  0  0  0
   -3.4660   -0.1610    1.3746 H   0  0  0  0  0  0  0  0  0  0  0  0
   -2.7172   -1.3319   -0.0845 O   0  0  0  0  0  1  0  0  0  0  0  0
  1  3  1  0  0  0  0
  2  1  1  0  0  0  0
  4  1  1  0  0  0  0
  4  7  1  0  0  0  0
  4  5  1  0  0  0  0
  6  4  1  0  0  0  0
  8 10  1  0  0  0  0
  8  1  1  0  0  0  0
  8 11  1  0  0  0  0
  9  8  1  0  0  0  0
 11 13  1  0  0  0  0
 12 11  1  0  0  0  0
 14 11  1  0  0  0  0
M  END
$$$$
Title Card Required
 OpenBabel07152211483D

 14 13  0  0  0  0  0  0  0  0999 V2000
   -1.0169    0.9831   -0.0012 C   0  0  0  0  0  0  0  0  0  0  0  0
   -0.3565    1.6083   -0.4786 H   0  0  0  0  0  0  0  0  0  0  0  0
   -0.9640    1.4942    1.0365 H   0  0  0  0  0  0  0  0  0  0  0  0
   -0.4531   -0.3837   -0.1647 C   0  0  0  0  0  0  0  0  0  0  0  0
   -0.3591   -1.1957    0.6232 H   0  0  0  0  0  0  0  0  0  0  0  0
   -0.6840   -0.4670   -1.2747 H   0  0  0  0  0  0  0  0  0  0  0  0
    1.8461   -0.0033    0.0463 Br  0  0  0  0  0  0  0  0  0  0  0  0
   -2.4795    0.9907   -0.2675 C   0  0  0  0  0  0  0  0  0  0  0  0
   -2.6268    0.9878   -1.4567 H   0  0  0  0  0  0  0  0  0  0  0  0
   -2.8572    1.9869   -0.0085 H   0  0  0  0  0  0  0  0  0  0  0  0
   -3.2444   -0.1287    0.2814 C   0  0  0  0  0  0  0  0  0  0  0  0
   -4.4091   -0.1623   -0.1698 H   0  0  0  0  0  0  0  0  0  0  0  0
   -3.5283   -0.1570    1.4050 H   0  0  0  0  0  0  0  0  0  0  0  0
   -2.7170   -1.3379   -0.0940 O   0  0  0  0  0  1  0  0  0  0  0  0
  1  3  1  0  0  0  0
  2  1  1  0  0  0  0
  4  1  1  0  0  0  0
  4  7  1  0  0  0  0
  4  5  1  0  0  0  0
  6  4  1  0  0  0  0
  8 10  1  0  0  0  0
  8  1  1  0  0  0  0
  8 11  1  0  0  0  0
  9  8  1  0  0  0  0
 11 13  1  0  0  0  0
 12 11  1  0  0  0  0
 14 11  1  0  0  0  0
M  END
$$$$
Title Card Required
 OpenBabel07152211483D

 14 13  0  0  0  0  0  0  0  0999 V2000
   -1.0327    0.9741    0.0152 C   0  0  0  0  0  0  0  0  0  0  0  0
   -0.2749    1.6361   -0.5015 H   0  0  0  0  0  0  0  0  0  0  0  0
   -0.8631    1.5038    0.9961 H   0  0  0  0  0  0  0  0  0  0  0  0
   -0.4454   -0.3824   -0.1634 C   0  0  0  0  0  0  0  0  0  0  0  0
   -0.3593   -1.1995    0.5913 H   0  0  0  0  0  0  0  0  0  0  0  0
   -0.6979   -0.5240   -1.3210 H   0  0  0  0  0  0  0  0  0  0  0  0
    1.8477   -0.0034    0.0472 Br  0  0  0  0  0  0  0  0  0  0  0  0
   -2.5009    1.0098   -0.2918 C   0  0  0  0  0  0  0  0  0  0  0  0
   -2.6531    0.9318   -1.3991 H   0  0  0  0  0  0  0  0  0  0  0  0
   -2.8097    2.0200   -0.0022 H   0  0  0  0  0  0  0  0  0  0  0  0
   -3.2420   -0.1328    0.2949 C   0  0  0  0  0  0  0  0  0  0  0  0
   -4.3919   -0.1736   -0.1288 H   0  0  0  0  0  0  0  0  0  0  0  0
   -3.5664   -0.1284    1.4198 H   0  0  0  0  0  0  0  0  0  0  0  0
   -2.7153   -1.3412   -0.1023 O   0  0  0  0  0  1  0  0  0  0  0  0
  1  3  1  0  0  0  0
  2  1  1  0  0  0  0
  4  1  1  0  0  0  0
  4  7  1  0  0  0  0
  4  5  1  0  0  0  0
  6  4  1  0  0  0  0
  8 10  1  0  0  0  0
  8  1  1  0  0  0  0
  8 11  1  0  0  0  0
  9  8  1  0  0  0  0
 11 13  1  0  0  0  0
 12 11  1  0  0  0  0
 14 11  1  0  0  0  0
M  END
$$$$
Title Card Required
 OpenBabel07152211483D

 14 13  0  0  0  0  0  0  0  0999 V2000
   -1.0443    0.9678    0.0348 C   0  0  0  0  0  0  0  0  0  0  0  0
   -0.2245    1.6588   -0.5419 H   0  0  0  0  0  0  0  0  0  0  0  0
   -0.7719    1.4862    0.9615 H   0  0  0  0  0  0  0  0  0  0  0  0
   -0.4389   -0.3825   -0.1658 C   0  0  0  0  0  0  0  0  0  0  0  0
   -0.3716   -1.1890    0.5390 H   0  0  0  0  0  0  0  0  0  0  0  0
   -0.6832   -0.6000   -1.3089 H   0  0  0  0  0  0  0  0  0  0  0  0
    1.8491   -0.0035    0.0480 Br  0  0  0  0  0  0  0  0  0  0  0  0
   -2.5211    1.0307   -0.3176 C   0  0  0  0  0  0  0  0  0  0  0  0
   -2.6766    0.8777   -1.3363 H   0  0  0  0  0  0  0  0  0  0  0  0
   -2.7780    2.0560    0.0050 H   0  0  0  0  0  0  0  0  0  0  0  0
   -3.2461   -0.1445    0.3074 C   0  0  0  0  0  0  0  0  0  0  0  0
   -4.3425   -0.1599   -0.0812 H   0  0  0  0  0  0  0  0  0  0  0  0
   -3.5767   -0.0842    1.4187 H   0  0  0  0  0  0  0  0  0  0  0  0
   -2.7122   -1.3418   -0.1094 O   0  0  0  0  0  1  0  0  0  0  0  0
  1  3  1  0  0  0  0
  2  1  1  0  0  0  0
  4  1  1  0  0  0  0
  4  7  1  0  0  0  0
  4  5  1  0  0  0  0
  6  4  1  0  0  0  0
  8 10  1  0  0  0  0
  8  1  1  0  0  0  0
  8 11  1  0  0  0  0
  9  8  1  0  0  0  0
 11 13  1  0  0  0  0
 12 11  1  0  0  0  0
 14 11  1  0  0  0  0
M  END
$$$$
Title Card Required
 OpenBabel07152211483D

 14 13  0  0  0  0  0  0  0  0999 V2000
   -1.0501    0.9647    0.0534 C   0  0  0  0  0  0  0  0  0  0  0  0
   -0.2269    1.6547   -0.5808 H   0  0  0  0  0  0  0  0  0  0  0  0
   -0.6928    1.4520    0.9481 H   0  0  0  0  0  0  0  0  0  0  0  0
   -0.4335   -0.3827   -0.1732 C   0  0  0  0  0  0  0  0  0  0  0  0
   -0.3921   -1.1848    0.4898 H   0  0  0  0  0  0  0  0  0  0  0  0
   -0.6427   -0.6860   -1.2440 H   0  0  0  0  0  0  0  0  0  0  0  0
    1.8504   -0.0036    0.0488 Br  0  0  0  0  0  0  0  0  0  0  0  0
   -2.5399    1.0536   -0.3393 C   0  0  0  0  0  0  0  0  0  0  0  0
   -2.7031    0.8237   -1.3192 H   0  0  0  0  0  0  0  0  0  0  0  0
   -2.7630    2.0901    0.0072 H   0  0  0  0  0  0  0  0  0  0  0  0
   -3.2548   -0.1615    0.3194 C   0  0  0  0  0  0  0  0  0  0  0  0
   -4.2820   -0.1275   -0.0355 H   0  0  0  0  0  0  0  0  0  0  0  0
   -3.5582   -0.0302    1.4095 H   0  0  0  0  0  0  0  0  0  0  0  0
   -2.7080   -1.3399   -0.1154 O   0  0  0  0  0  1  0  0  0  0  0  0
  1  3  1  0  0  0  0
  2  1  1  0  0  0  0
  4  7  1  0  0  0  0
  4  1  1  0  0  0  0
  4  5  1  0  0  0  0
  6  4  1  0  0  0  0
  8 10  1  0  0  0  0
  8  1  1  0  0  0  0
  8 11  1  0  0  0  0
  9  8  1  0  0  0  0
 11 13  1  0  0  0  0
 12 11  1  0  0  0  0
 14 11  1  0  0  0  0
M  END
$$$$
Title Card Required
 OpenBabel07152211483D

 14 13  0  0  0  0  0  0  0  0999 V2000
   -1.0501    0.9641    0.0675 C   0  0  0  0  0  0  0  0  0  0  0  0
   -0.2835    1.6227   -0.6091 H   0  0  0  0  0  0  0  0  0  0  0  0
   -0.6319    1.4115    0.9654 H   0  0  0  0  0  0  0  0  0  0  0  0
   -0.4291   -0.3817   -0.1844 C   0  0  0  0  0  0  0  0  0  0  0  0
   -0.4167   -1.2033    0.4680 H   0  0  0  0  0  0  0  0  0  0  0  0
   -0.5857   -0.7720   -1.1575 H   0  0  0  0  0  0  0  0  0  0  0  0
    1.8516   -0.0037    0.0494 Br  0  0  0  0  0  0  0  0  0  0  0  0
   -2.5557    1.0767   -0.3528 C   0  0  0  0  0  0  0  0  0  0  0  0
   -2.7318    0.7726   -1.3678 H   0  0  0  0  0  0  0  0  0  0  0  0
   -2.7667    2.1158   -0.0019 H   0  0  0  0  0  0  0  0  0  0  0  0
   -3.2643   -0.1807    0.3304 C   0  0  0  0  0  0  0  0  0  0  0  0
   -4.2490   -0.0846   -0.0070 H   0  0  0  0  0  0  0  0  0  0  0  0
   -3.5126    0.0244    1.4050 H   0  0  0  0  0  0  0  0  0  0  0  0
   -2.7030   -1.3359   -0.1202 O   0  0  0  0  0  1  0  0  0  0  0  0
  1  3  1  0  0  0  0
  2  1  1  0  0  0  0
  4  7  1  0  0  0  0
  4  1  1  0  0  0  0
  4  5  1  0  0  0  0
  6  4  1  0  0  0  0
  8 10  1  0  0  0  0
  8  1  1  0  0  0  0
  8 11  1  0  0  0  0
  9  8  1  0  0  0  0
 11 13  1  0  0  0  0
 12 11  1  0  0  0  0
 14 11  1  0  0  0  0
M  END
$$$$
Title Card Required
 OpenBabel07152211483D

 14 13  0  0  0  0  0  0  0  0999 V2000
   -1.0455    0.9652    0.0761 C   0  0  0  0  0  0  0  0  0  0  0  0
   -0.3812    1.5722   -0.6252 H   0  0  0  0  0  0  0  0  0  0  0  0
   -0.5930    1.3674    1.0068 H   0  0  0  0  0  0  0  0  0  0  0  0
   -0.4252   -0.3797   -0.1949 C   0  0  0  0  0  0  0  0  0  0  0  0
   -0.4434   -1.2358    0.4755 H   0  0  0  0  0  0  0  0  0  0  0  0
   -0.5238   -0.8595   -1.0984 H   0  0  0  0  0  0  0  0  0  0  0  0
    1.8525   -0.0038    0.0500 Br  0  0  0  0  0  0  0  0  0  0  0  0
   -2.5683    1.0978   -0.3605 C   0  0  0  0  0  0  0  0  0  0  0  0
   -2.7539    0.7362   -1.4393 H   0  0  0  0  0  0  0  0  0  0  0  0
   -2.7887    2.1324   -0.0243 H   0  0  0  0  0  0  0  0  0  0  0  0
   -3.2719   -0.1998    0.3399 C   0  0  0  0  0  0  0  0  0  0  0  0
   -4.2702   -0.0377   -0.0029 H   0  0  0  0  0  0  0  0  0  0  0  0
   -3.4451    0.0730    1.4141 H   0  0  0  0  0  0  0  0  0  0  0  0
   -2.6975   -1.3302   -0.1236 O   0  0  0  0  0  1  0  0  0  0  0  0
  1  3  1  0  0  0  0
  2  1  1  0  0  0  0
  4  7  1  0  0  0  0
  4  1  1  0  0  0  0
  4  5  1  0  0  0  0
  6  4  1  0  0  0  0
  8 10  1  0  0  0  0
  8  1  1  0  0  0  0
  8 11  1  0  0  0  0
  9  8  1  0  0  0  0
 11 13  1  0  0  0  0
 12 11  1  0  0  0  0
 14 11  1  0  0  0  0
M  END
$$$$
Title Card Required
 OpenBabel07152211483D

 14 13  0  0  0  0  0  0  0  0999 V2000
   -1.0377    0.9669    0.0802 C   0  0  0  0  0  0  0  0  0  0  0  0
   -0.4981    1.5208   -0.6379 H   0  0  0  0  0  0  0  0  0  0  0  0
   -0.5799    1.3180    1.0567 H   0  0  0  0  0  0  0  0  0  0  0  0
   -0.4213   -0.3784   -0.2009 C   0  0  0  0  0  0  0  0  0  0  0  0
   -0.4714   -1.2586    0.5000 H   0  0  0  0  0  0  0  0  0  0  0  0
   -0.4618   -0.9525   -1.0940 H   0  0  0  0  0  0  0  0  0  0  0  0
    1.8532   -0.0040    0.0505 Br  0  0  0  0  0  0  0  0  0  0  0  0
   -2.5785    1.1150   -0.3660 C   0  0  0  0  0  0  0  0  0  0  0  0
   -2.7616    0.7272   -1.4888 H   0  0  0  0  0  0  0  0  0  0  0  0
   -2.8279    2.1438   -0.0592 H   0  0  0  0  0  0  0  0  0  0  0  0
   -3.2778   -0.2176    0.3473 C   0  0  0  0  0  0  0  0  0  0  0  0
   -4.3320    0.0065   -0.0134 H   0  0  0  0  0  0  0  0  0  0  0  0
   -3.3595    0.1103    1.4351 H   0  0  0  0  0  0  0  0  0  0  0  0
   -2.6920   -1.3227   -0.1257 O   0  0  0  0  0  1  0  0  0  0  0  0
  1  3  1  0  0  0  0
  2  1  1  0  0  0  0
  4  7  1  0  0  0  0
  4  1  1  0  0  0  0
  4  5  1  0  0  0  0
  6  4  1  0  0  0  0
  8 10  1  0  0  0  0
  8  1  1  0  0  0  0
  8 11  1  0  0  0  0
  9  8  1  0  0  0  0
 11 13  1  0  0  0  0
 12 11  1  0  0  0  0
 14 11  1  0  0  0  0
M  END
$$$$
Title Card Required
 OpenBabel07152211483D

 14 13  0  0  0  0  0  0  0  0999 V2000
   -1.0291    0.9671    0.0828 C   0  0  0  0  0  0  0  0  0  0  0  0
   -0.6065    1.4995   -0.6747 H   0  0  0  0  0  0  0  0  0  0  0  0
   -0.5984    1.2597    1.1003 H   0  0  0  0  0  0  0  0  0  0  0  0
   -0.4170   -0.3811   -0.2027 C   0  0  0  0  0  0  0  0  0  0  0  0
   -0.5007   -1.2492    0.5308 H   0  0  0  0  0  0  0  0  0  0  0  0
   -0.3958   -1.0398   -1.1283 H   0  0  0  0  0  0  0  0  0  0  0  0
    1.8538   -0.0043    0.0510 Br  0  0  0  0  0  0  0  0  0  0  0  0
   -2.5869    1.1272   -0.3710 C   0  0  0  0  0  0  0  0  0  0  0  0
   -2.7497    0.7549   -1.4945 H   0  0  0  0  0  0  0  0  0  0  0  0
   -2.8867    2.1542   -0.1076 H   0  0  0  0  0  0  0  0  0  0  0  0
   -3.2847   -0.2334    0.3522 C   0  0  0  0  0  0  0  0  0  0  0  0
   -4.4049    0.0392   -0.0206 H   0  0  0  0  0  0  0  0  0  0  0  0
   -3.2545    0.1303    1.4591 H   0  0  0  0  0  0  0  0  0  0  0  0
   -2.6864   -1.3127   -0.1265 O   0  0  0  0  0  1  0  0  0  0  0  0
  1  3  1  0  0  0  0
  2  1  1  0  0  0  0
  4  7  1  0  0  0  0
  4  1  1  0  0  0  0
  4  5  1  0  0  0  0
  6  4  1  0  0  0  0
  8 10  1  0  0  0  0
  8  1  1  0  0  0  0
  8 11  1  0  0  0  0
  9  8  1  0  0  0  0
 11 13  1  0  0  0  0
 12 11  1  0  0  0  0
 14 11  1  0  0  0  0
M  END
$$$$
Title Card Required
 OpenBabel07152211483D

 14 13  0  0  0  0  0  0  0  0999 V2000
   -1.0226    0.9638    0.0852 C   0  0  0  0  0  0  0  0  0  0  0  0
   -0.6708    1.5390   -0.7542 H   0  0  0  0  0  0  0  0  0  0  0  0
   -0.6506    1.2012    1.1197 H   0  0  0  0  0  0  0  0  0  0  0  0
   -0.4124   -0.3915   -0.2024 C   0  0  0  0  0  0  0  0  0  0  0  0
   -0.5270   -1.1966    0.5593 H   0  0  0  0  0  0  0  0  0  0  0  0
   -0.3325   -1.0826   -1.1580 H   0  0  0  0  0  0  0  0  0  0  0  0
    1.8542   -0.0046    0.0515 Br  0  0  0  0  0  0  0  0  0  0  0  0
   -2.5933    1.1320   -0.3751 C   0  0  0  0  0  0  0  0  0  0  0  0
   -2.7165    0.8197   -1.4517 H   0  0  0  0  0  0  0  0  0  0  0  0
   -2.9587    2.1620   -0.1645 H   0  0  0  0  0  0  0  0  0  0  0  0
   -3.2934   -0.2439    0.3537 C   0  0  0  0  0  0  0  0  0  0  0  0
   -4.4528    0.0456   -0.0062 H   0  0  0  0  0  0  0  0  0  0  0  0
   -3.1454    0.1223    1.4697 H   0  0  0  0  0  0  0  0  0  0  0  0
   -2.6815   -1.3005   -0.1256 O   0  0  0  0  0  1  0  0  0  0  0  0
  1  3  1  0  0  0  0
  2  1  1  0  0  0  0
  4  7  1  0  0  0  0
  4  1  1  0  0  0  0
  4  5  1  0  0  0  0
  6  4  1  0  0  0  0
  8 10  1  0  0  0  0
  8  1  1  0  0  0  0
  8 11  1  0  0  0  0
  9  8  1  0  0  0  0
 11 13  1  0  0  0  0
 12 11  1  0  0  0  0
 14 11  1  0  0  0  0
M  END
$$$$
Title Card Required
 OpenBabel07152211483D

 14 13  0  0  0  0  0  0  0  0999 V2000
   -1.0188    0.9587    0.0829 C   0  0  0  0  0  0  0  0  0  0  0  0
   -0.6962    1.6125   -0.8270 H   0  0  0  0  0  0  0  0  0  0  0  0
   -0.7237    1.1564    1.1165 H   0  0  0  0  0  0  0  0  0  0  0  0
   -0.4077   -0.4086   -0.2027 C   0  0  0  0  0  0  0  0  0  0  0  0
   -0.5467   -1.1194    0.5885 H   0  0  0  0  0  0  0  0  0  0  0  0
   -0.2825   -1.0620   -1.1549 H   0  0  0  0  0  0  0  0  0  0  0  0
    1.8543   -0.0050    0.0519 Br  0  0  0  0  0  0  0  0  0  0  0  0
   -2.5976    1.1302   -0.3755 C   0  0  0  0  0  0  0  0  0  0  0  0
   -2.6699    0.9011   -1.3966 H   0  0  0  0  0  0  0  0  0  0  0  0
   -3.0294    2.1601   -0.2203 H   0  0  0  0  0  0  0  0  0  0  0  0
   -3.3027   -0.2471    0.3523 C   0  0  0  0  0  0  0  0  0  0  0  0
   -4.4591    0.0204    0.0358 H   0  0  0  0  0  0  0  0  0  0  0  0
   -3.0533    0.0856    1.4581 H   0  0  0  0  0  0  0  0  0  0  0  0
   -2.6779   -1.2874   -0.1234 O   0  0  0  0  0  1  0  0  0  0  0  0
  1  3  1  0  0  0  0
  2  1  1  0  0  0  0
  4  7  1  0  0  0  0
  4  1  1  0  0  0  0
  4  5  1  0  0  0  0
  6  4  1  0  0  0  0
  8 10  1  0  0  0  0
  8  1  1  0  0  0  0
  8 11  1  0  0  0  0
  9  8  1  0  0  0  0
 11 13  1  0  0  0  0
 12 11  1  0  0  0  0
 14 11  1  0  0  0  0
M  END
$$$$
Title Card Required
 OpenBabel07152211483D

 14 13  0  0  0  0  0  0  0  0999 V2000
   -1.0175    0.9544    0.0704 C   0  0  0  0  0  0  0  0  0  0  0  0
   -0.6994    1.6801   -0.8420 H   0  0  0  0  0  0  0  0  0  0  0  0
   -0.8040    1.1342    1.1096 H   0  0  0  0  0  0  0  0  0  0  0  0
   -0.4029   -0.4281   -0.2045 C   0  0  0  0  0  0  0  0  0  0  0  0
   -0.5604   -1.0476    0.6345 H   0  0  0  0  0  0  0  0  0  0  0  0
   -0.2490   -0.9909   -1.1242 H   0  0  0  0  0  0  0  0  0  0  0  0
    1.8542   -0.0054    0.0522 Br  0  0  0  0  0  0  0  0  0  0  0  0
   -2.6003    1.1240   -0.3681 C   0  0  0  0  0  0  0  0  0  0  0  0
   -2.6188    0.9740   -1.3883 H   0  0  0  0  0  0  0  0  0  0  0  0
   -3.0883    2.1429   -0.2674 H   0  0  0  0  0  0  0  0  0  0  0  0
   -3.3111   -0.2431    0.3487 C   0  0  0  0  0  0  0  0  0  0  0  0
   -4.4283   -0.0335    0.1038 H   0  0  0  0  0  0  0  0  0  0  0  0
   -2.9891    0.0279    1.4281 H   0  0  0  0  0  0  0  0  0  0  0  0
   -2.6753   -1.2742   -0.1208 O   0  0  0  0  0  1  0  0  0  0  0  0
  1  3  1  0  0  0  0
  2  1  1  0  0  0  0
  4  7  1  0  0  0  0
  4  1  1  0  0  0  0
  4  5  1  0  0  0  0
  6  4  1  0  0  0  0
  8 10  1  0  0  0  0
  8  1  1  0  0  0  0
  8 11  1  0  0  0  0
  9  8  1  0  0  0  0
 11 13  1  0  0  0  0
 12 11  1  0  0  0  0
 14 11  1  0  0  0  0
M  END
$$$$
Title Card Required
 OpenBabel07152211483D

 14 13  0  0  0  0  0  0  0  0999 V2000
   -1.0190    0.9522    0.0480 C   0  0  0  0  0  0  0  0  0  0  0  0
   -0.6866    1.7208   -0.7885 H   0  0  0  0  0  0  0  0  0  0  0  0
   -0.8763    1.1366    1.1117 H   0  0  0  0  0  0  0  0  0  0  0  0
   -0.3989   -0.4439   -0.2053 C   0  0  0  0  0  0  0  0  0  0  0  0
   -0.5679   -1.0030    0.6972 H   0  0  0  0  0  0  0  0  0  0  0  0
   -0.2301   -0.9104   -1.1023 H   0  0  0  0  0  0  0  0  0  0  0  0
    1.8540   -0.0058    0.0526 Br  0  0  0  0  0  0  0  0  0  0  0  0
   -2.6021    1.1150   -0.3539 C   0  0  0  0  0  0  0  0  0  0  0  0
   -2.5718    1.0238   -1.4415 H   0  0  0  0  0  0  0  0  0  0  0  0
   -3.1258    2.1139   -0.2948 H   0  0  0  0  0  0  0  0  0  0  0  0
   -3.3157   -0.2331    0.3436 C   0  0  0  0  0  0  0  0  0  0  0  0
   -4.3859   -0.1023    0.1837 H   0  0  0  0  0  0  0  0  0  0  0  0
   -2.9597   -0.0331    1.3959 H   0  0  0  0  0  0  0  0  0  0  0  0
   -2.6733   -1.2628   -0.1188 O   0  0  0  0  0  1  0  0  0  0  0  0
  1  3  1  0  0  0  0
  2  1  1  0  0  0  0
  4  1  1  0  0  0  0
  4  7  1  0  0  0  0
  4  5  1  0  0  0  0
  6  4  1  0  0  0  0
  8 10  1  0  0  0  0
  8  1  1  0  0  0  0
  8 11  1  0  0  0  0
  9  8  1  0  0  0  0
 11 13  1  0  0  0  0
 12 11  1  0  0  0  0
 14 11  1  0  0  0  0
M  END
$$$$
Title Card Required
 OpenBabel07152211483D

 14 13  0  0  0  0  0  0  0  0999 V2000
   -1.0235    0.9521    0.0190 C   0  0  0  0  0  0  0  0  0  0  0  0
   -0.6584    1.7381   -0.6831 H   0  0  0  0  0  0  0  0  0  0  0  0
   -0.9398    1.1565    1.1144 H   0  0  0  0  0  0  0  0  0  0  0  0
   -0.3971   -0.4539   -0.2000 C   0  0  0  0  0  0  0  0  0  0  0  0
   -0.5672   -0.9802    0.7574 H   0  0  0  0  0  0  0  0  0  0  0  0
   -0.2157   -0.8539   -1.1300 H   0  0  0  0  0  0  0  0  0  0  0  0
    1.8536   -0.0063    0.0530 Br  0  0  0  0  0  0  0  0  0  0  0  0
   -2.6033    1.1027   -0.3384 C   0  0  0  0  0  0  0  0  0  0  0  0
   -2.5320    1.0550   -1.5075 H   0  0  0  0  0  0  0  0  0  0  0  0
   -3.1431    2.0800   -0.2992 H   0  0  0  0  0  0  0  0  0  0  0  0
   -3.3140   -0.2184    0.3374 C   0  0  0  0  0  0  0  0  0  0  0  0
   -4.3684   -0.1759    0.2658 H   0  0  0  0  0  0  0  0  0  0  0  0
   -2.9587   -0.0854    1.3782 H   0  0  0  0  0  0  0  0  0  0  0  0
   -2.6712   -1.2539   -0.1182 O   0  0  0  0  0  1  0  0  0  0  0  0
  1  3  1  0  0  0  0
  2  1  1  0  0  0  0
  4  1  1  0  0  0  0
  4  7  1  0  0  0  0
  4  5  1  0  0  0  0
  6  4  1  0  0  0  0
  8 10  1  0  0  0  0
  8  1  1  0  0  0  0
  8 11  1  0  0  0  0
  9  8  1  0  0  0  0
 11 13  1  0  0  0  0
 12 11  1  0  0  0  0
 14 11  1  0  0  0  0
M  END
$$$$
Title Card Required
 OpenBabel07152211483D

 14 13  0  0  0  0  0  0  0  0999 V2000
   -1.0316    0.9531   -0.0110 C   0  0  0  0  0  0  0  0  0  0  0  0
   -0.6107    1.7483   -0.5581 H   0  0  0  0  0  0  0  0  0  0  0  0
   -0.9925    1.1844    1.1018 H   0  0  0  0  0  0  0  0  0  0  0  0
   -0.3980   -0.4583   -0.1880 C   0  0  0  0  0  0  0  0  0  0  0  0
   -0.5557   -0.9719    0.7912 H   0  0  0  0  0  0  0  0  0  0  0  0
   -0.2056   -0.8264   -1.1998 H   0  0  0  0  0  0  0  0  0  0  0  0
    1.8532   -0.0068    0.0533 Br  0  0  0  0  0  0  0  0  0  0  0  0
   -2.6039    1.0871   -0.3267 C   0  0  0  0  0  0  0  0  0  0  0  0
   -2.5067    1.0688   -1.5401 H   0  0  0  0  0  0  0  0  0  0  0  0
   -3.1424    2.0495   -0.2788 H   0  0  0  0  0  0  0  0  0  0  0  0
   -3.3048   -0.2004    0.3305 C   0  0  0  0  0  0  0  0  0  0  0  0
   -4.3964   -0.2458    0.3421 H   0  0  0  0  0  0  0  0  0  0  0  0
   -2.9788   -0.1190    1.3871 H   0  0  0  0  0  0  0  0  0  0  0  0
   -2.6685   -1.2478   -0.1195 O   0  0  0  0  0  1  0  0  0  0  0  0
  1  3  1  0  0  0  0
  2  1  1  0  0  0  0
  4  1  1  0  0  0  0
  4  7  1  0  0  0  0
  4  5  1  0  0  0  0
  6  4  1  0  0  0  0
  8 10  1  0  0  0  0
  8  1  1  0  0  0  0
  8 11  1  0  0  0  0
  9  8  1  0  0  0  0
 11 12  1  0  0  0  0
 11 13  1  0  0  0  0
 14 11  1  0  0  0  0
M  END
$$$$
Title Card Required
 OpenBabel07152211483D

 14 13  0  0  0  0  0  0  0  0999 V2000
   -1.0443    0.9533   -0.0372 C   0  0  0  0  0  0  0  0  0  0  0  0
   -0.5334    1.7778   -0.4464 H   0  0  0  0  0  0  0  0  0  0  0  0
   -1.0338    1.2110    1.0665 H   0  0  0  0  0  0  0  0  0  0  0  0
   -0.4011   -0.4586   -0.1731 C   0  0  0  0  0  0  0  0  0  0  0  0
   -0.5334   -0.9766    0.7901 H   0  0  0  0  0  0  0  0  0  0  0  0
   -0.2084   -0.8121   -1.2606 H   0  0  0  0  0  0  0  0  0  0  0  0
    1.8527   -0.0073    0.0537 Br  0  0  0  0  0  0  0  0  0  0  0  0
   -2.6035    1.0683   -0.3210 C   0  0  0  0  0  0  0  0  0  0  0  0
   -2.5023    1.0643   -1.5235 H   0  0  0  0  0  0  0  0  0  0  0  0
   -3.1268    2.0285   -0.2330 H   0  0  0  0  0  0  0  0  0  0  0  0
   -3.2899   -0.1801    0.3233 C   0  0  0  0  0  0  0  0  0  0  0  0
   -4.4477   -0.3065    0.4089 H   0  0  0  0  0  0  0  0  0  0  0  0
   -3.0142   -0.1286    1.4225 H   0  0  0  0  0  0  0  0  0  0  0  0
   -2.6647   -1.2444   -0.1230 O   0  0  0  0  0  1  0  0  0  0  0  0
  1  3  1  0  0  0  0
  2  1  1  0  0  0  0
  4  1  1  0  0  0  0
  4  7  1  0  0  0  0
  4  5  1  0  0  0  0
  6  4  1  0  0  0  0
  8 10  1  0  0  0  0
  8  1  1  0  0  0  0
  8 11  1  0  0  0  0
  9  8  1  0  0  0  0
 11 12  1  0  0  0  0
 11 13  1  0  0  0  0
 14 11  1  0  0  0  0
M  END
$$$$
Title Card Required
 OpenBabel07152211483D

 14 13  0  0  0  0  0  0  0  0999 V2000
   -1.0611    0.9526   -0.0570 C   0  0  0  0  0  0  0  0  0  0  0  0
   -0.4341    1.8259   -0.3636 H   0  0  0  0  0  0  0  0  0  0  0  0
   -1.0628    1.2281    1.0175 H   0  0  0  0  0  0  0  0  0  0  0  0
   -0.4055   -0.4553   -0.1604 C   0  0  0  0  0  0  0  0  0  0  0  0
   -0.5039   -0.9981    0.7622 H   0  0  0  0  0  0  0  0  0  0  0  0
   -0.2302   -0.8008   -1.2690 H   0  0  0  0  0  0  0  0  0  0  0  0
    1.8521   -0.0078    0.0541 Br  0  0  0  0  0  0  0  0  0  0  0  0
   -2.6019    1.0479   -0.3223 C   0  0  0  0  0  0  0  0  0  0  0  0
   -2.5245    1.0404   -1.4641 H   0  0  0  0  0  0  0  0  0  0  0  0
   -3.0986    2.0199   -0.1644 H   0  0  0  0  0  0  0  0  0  0  0  0
   -3.2732   -0.1604    0.3180 C   0  0  0  0  0  0  0  0  0  0  0  0
   -4.4827   -0.3467    0.4567 H   0  0  0  0  0  0  0  0  0  0  0  0
   -3.0597   -0.1118    1.4684 H   0  0  0  0  0  0  0  0  0  0  0  0
   -2.6599   -1.2432   -0.1284 O   0  0  0  0  0  1  0  0  0  0  0  0
  1  3  1  0  0  0  0
  2  1  1  0  0  0  0
  4  1  1  0  0  0  0
  4  7  1  0  0  0  0
  4  5  1  0  0  0  0
  6  4  1  0  0  0  0
  8 10  1  0  0  0  0
  8  1  1  0  0  0  0
  8 11  1  0  0  0  0
  9  8  1  0  0  0  0
 11 12  1  0  0  0  0
 11 13  1  0  0  0  0
 14 11  1  0  0  0  0
M  END
$$$$
Title Card Required
 OpenBabel07152211483D

 14 13  0  0  0  0  0  0  0  0999 V2000
   -1.0787    0.9532   -0.0710 C   0  0  0  0  0  0  0  0  0  0  0  0
   -0.3426    1.8586   -0.3052 H   0  0  0  0  0  0  0  0  0  0  0  0
   -1.0811    1.2325    0.9746 H   0  0  0  0  0  0  0  0  0  0  0  0
   -0.4110   -0.4480   -0.1528 C   0  0  0  0  0  0  0  0  0  0  0  0
   -0.4714   -1.0423    0.7258 H   0  0  0  0  0  0  0  0  0  0  0  0
   -0.2704   -0.7924   -1.2171 H   0  0  0  0  0  0  0  0  0  0  0  0
    1.8514   -0.0083    0.0545 Br  0  0  0  0  0  0  0  0  0  0  0  0
   -2.5993    1.0282   -0.3290 C   0  0  0  0  0  0  0  0  0  0  0  0
   -2.5758    0.9983   -1.3903 H   0  0  0  0  0  0  0  0  0  0  0  0
   -3.0573    2.0177   -0.0777 H   0  0  0  0  0  0  0  0  0  0  0  0
   -3.2566   -0.1442    0.3167 C   0  0  0  0  0  0  0  0  0  0  0  0
   -4.4792   -0.3575    0.4771 H   0  0  0  0  0  0  0  0  0  0  0  0
   -3.1098   -0.0704    1.5047 H   0  0  0  0  0  0  0  0  0  0  0  0
   -2.6541   -1.2432   -0.1354 O   0  0  0  0  0  1  0  0  0  0  0  0
  1  3  1  0  0  0  0
  2  1  1  0  0  0  0
  4  1  1  0  0  0  0
  4  7  1  0  0  0  0
  4  5  1  0  0  0  0
  6  4  1  0  0  0  0
  8 10  1  0  0  0  0
  8  1  1  0  0  0  0
  8 11  1  0  0  0  0
  9  8  1  0  0  0  0
 11 12  1  0  0  0  0
 11 13  1  0  0  0  0
 14 11  1  0  0  0  0
M  END
$$$$
Title Card Required
 OpenBabel07152211483D

 14 13  0  0  0  0  0  0  0  0999 V2000
   -1.0936    0.9566   -0.0801 C   0  0  0  0  0  0  0  0  0  0  0  0
   -0.2894    1.8478   -0.2711 H   0  0  0  0  0  0  0  0  0  0  0  0
   -1.0917    1.2255    0.9598 H   0  0  0  0  0  0  0  0  0  0  0  0
   -0.4177   -0.4362   -0.1494 C   0  0  0  0  0  0  0  0  0  0  0  0
   -0.4396   -1.1080    0.6930 H   0  0  0  0  0  0  0  0  0  0  0  0
   -0.3223   -0.7946   -1.1315 H   0  0  0  0  0  0  0  0  0  0  0  0
    1.8505   -0.0088    0.0550 Br  0  0  0  0  0  0  0  0  0  0  0  0
   -2.5963    1.0117   -0.3372 C   0  0  0  0  0  0  0  0  0  0  0  0
   -2.6570    0.9423   -1.3561 H   0  0  0  0  0  0  0  0  0  0  0  0
   -3.0018    2.0106    0.0162 H   0  0  0  0  0  0  0  0  0  0  0  0
   -3.2414   -0.1340    0.3213 C   0  0  0  0  0  0  0  0  0  0  0  0
   -4.4323   -0.3337    0.4632 H   0  0  0  0  0  0  0  0  0  0  0  0
   -3.1557   -0.0093    1.5169 H   0  0  0  0  0  0  0  0  0  0  0  0
   -2.6473   -1.2435   -0.1433 O   0  0  0  0  0  1  0  0  0  0  0  0
  1  3  1  0  0  0  0
  2  1  1  0  0  0  0
  4  1  1  0  0  0  0
  4  7  1  0  0  0  0
  4  5  1  0  0  0  0
  6  4  1  0  0  0  0
  8  1  1  0  0  0  0
  8 10  1  0  0  0  0
  8 11  1  0  0  0  0
  9  8  1  0  0  0  0
 11 12  1  0  0  0  0
 11 13  1  0  0  0  0
 14 11  1  0  0  0  0
M  END
$$$$
Title Card Required
 OpenBabel07152211483D

 14 13  0  0  0  0  0  0  0  0999 V2000
   -1.1027    0.9619   -0.0840 C   0  0  0  0  0  0  0  0  0  0  0  0
   -0.2877    1.7943   -0.2653 H   0  0  0  0  0  0  0  0  0  0  0  0
   -1.0977    1.2104    0.9791 H   0  0  0  0  0  0  0  0  0  0  0  0
   -0.4255   -0.4212   -0.1456 C   0  0  0  0  0  0  0  0  0  0  0  0
   -0.4135   -1.1741    0.6620 H   0  0  0  0  0  0  0  0  0  0  0  0
   -0.3714   -0.8205   -1.0759 H   0  0  0  0  0  0  0  0  0  0  0  0
    1.8497   -0.0093    0.0554 Br  0  0  0  0  0  0  0  0  0  0  0  0
   -2.5933    1.0015   -0.3429 C   0  0  0  0  0  0  0  0  0  0  0  0
   -2.7585    0.8843   -1.3922 H   0  0  0  0  0  0  0  0  0  0  0  0
   -2.9403    1.9916    0.0963 H   0  0  0  0  0  0  0  0  0  0  0  0
   -3.2292   -0.1309    0.3313 C   0  0  0  0  0  0  0  0  0  0  0  0
   -4.3583   -0.2813    0.4165 H   0  0  0  0  0  0  0  0  0  0  0  0
   -3.1855    0.0578    1.5044 H   0  0  0  0  0  0  0  0  0  0  0  0
   -2.6403   -1.2437   -0.1508 O   0  0  0  0  0  1  0  0  0  0  0  0
  1  3  1  0  0  0  0
  2  1  1  0  0  0  0
  4  1  1  0  0  0  0
  4  7  1  0  0  0  0
  4  5  1  0  0  0  0
  6  4  1  0  0  0  0
  8  1  1  0  0  0  0
  8 10  1  0  0  0  0
  8 11  1  0  0  0  0
  9  8  1  0  0  0  0
 11 12  1  0  0  0  0
 11 13  1  0  0  0  0
 14 11  1  0  0  0  0
M  END
$$$$
Title Card Required
 OpenBabel07152211483D

 14 13  0  0  0  0  0  0  0  0999 V2000
   -1.1068    0.9673   -0.0828 C   0  0  0  0  0  0  0  0  0  0  0  0
   -0.3231    1.7212   -0.2858 H   0  0  0  0  0  0  0  0  0  0  0  0
   -1.1021    1.1900    1.0143 H   0  0  0  0  0  0  0  0  0  0  0  0
   -0.4339   -0.4056   -0.1384 C   0  0  0  0  0  0  0  0  0  0  0  0
   -0.3952   -1.2201    0.6279 H   0  0  0  0  0  0  0  0  0  0  0  0
   -0.4121   -0.8713   -1.0790 H   0  0  0  0  0  0  0  0  0  0  0  0
    1.8488   -0.0097    0.0558 Br  0  0  0  0  0  0  0  0  0  0  0  0
   -2.5906    0.9970   -0.3482 C   0  0  0  0  0  0  0  0  0  0  0  0
   -2.8631    0.8366   -1.4518 H   0  0  0  0  0  0  0  0  0  0  0  0
   -2.8830    1.9645    0.1522 H   0  0  0  0  0  0  0  0  0  0  0  0
   -3.2187   -0.1331    0.3444 C   0  0  0  0  0  0  0  0  0  0  0  0
   -4.2888   -0.2144    0.3476 H   0  0  0  0  0  0  0  0  0  0  0  0
   -3.1954    0.1194    1.4794 H   0  0  0  0  0  0  0  0  0  0  0  0
   -2.6332   -1.2438   -0.1572 O   0  0  0  0  0  1  0  0  0  0  0  0
  1  3  1  0  0  0  0
  2  1  1  0  0  0  0
  4  1  1  0  0  0  0
  4  7  1  0  0  0  0
  4  5  1  0  0  0  0
  6  4  1  0  0  0  0
  8  1  1  0  0  0  0
  8 10  1  0  0  0  0
  8 11  1  0  0  0  0
  9  8  1  0  0  0  0
 11 12  1  0  0  0  0
 11 13  1  0  0  0  0
 14 11  1  0  0  0  0
M  END
$$$$
Title Card Required
 OpenBabel07152211483D

 14 13  0  0  0  0  0  0  0  0999 V2000
   -1.1081    0.9712   -0.0759 C   0  0  0  0  0  0  0  0  0  0  0  0
   -0.3734    1.6501   -0.3357 H   0  0  0  0  0  0  0  0  0  0  0  0
   -1.1066    1.1642    1.0501 H   0  0  0  0  0  0  0  0  0  0  0  0
   -0.4431   -0.3910   -0.1296 C   0  0  0  0  0  0  0  0  0  0  0  0
   -0.3846   -1.2410    0.5888 H   0  0  0  0  0  0  0  0  0  0  0  0
   -0.4496   -0.9328   -1.1132 H   0  0  0  0  0  0  0  0  0  0  0  0
    1.8477   -0.0101    0.0562 Br  0  0  0  0  0  0  0  0  0  0  0  0
   -2.5886    0.9961   -0.3566 C   0  0  0  0  0  0  0  0  0  0  0  0
   -2.9637    0.8043   -1.4910 H   0  0  0  0  0  0  0  0  0  0  0  0
   -2.8328    1.9347    0.1868 H   0  0  0  0  0  0  0  0  0  0  0  0
   -3.2063   -0.1389    0.3598 C   0  0  0  0  0  0  0  0  0  0  0  0
   -4.2512   -0.1362    0.2566 H   0  0  0  0  0  0  0  0  0  0  0  0
   -3.1865    0.1744    1.4521 H   0  0  0  0  0  0  0  0  0  0  0  0
   -2.6255   -1.2438   -0.1628 O   0  0  0  0  0  1  0  0  0  0  0  0
  1  3  1  0  0  0  0
  2  1  1  0  0  0  0
  4  1  1  0  0  0  0
  4  7  1  0  0  0  0
  4  5  1  0  0  0  0
  6  4  1  0  0  0  0
  8  1  1  0  0  0  0
  8 10  1  0  0  0  0
  8 11  1  0  0  0  0
  9  8  1  0  0  0  0
 11 13  1  0  0  0  0
 12 11  1  0  0  0  0
 14 11  1  0  0  0  0
M  END
$$$$
Title Card Required
 OpenBabel07152211483D

 14 13  0  0  0  0  0  0  0  0999 V2000
   -1.1097    0.9702   -0.0606 C   0  0  0  0  0  0  0  0  0  0  0  0
   -0.4062    1.6167   -0.4308 H   0  0  0  0  0  0  0  0  0  0  0  0
   -1.1108    1.1355    1.0726 H   0  0  0  0  0  0  0  0  0  0  0  0
   -0.4534   -0.3800   -0.1234 C   0  0  0  0  0  0  0  0  0  0  0  0
   -0.3835   -1.2326    0.5511 H   0  0  0  0  0  0  0  0  0  0  0  0
   -0.4857   -0.9790   -1.1386 H   0  0  0  0  0  0  0  0  0  0  0  0
    1.8464   -0.0105    0.0565 Br  0  0  0  0  0  0  0  0  0  0  0  0
   -2.5877    0.9978   -0.3703 C   0  0  0  0  0  0  0  0  0  0  0  0
   -3.0473    0.7960   -1.4823 H   0  0  0  0  0  0  0  0  0  0  0  0
   -2.7980    1.9120    0.1985 H   0  0  0  0  0  0  0  0  0  0  0  0
   -3.1897   -0.1478    0.3764 C   0  0  0  0  0  0  0  0  0  0  0  0
   -4.2643   -0.0471    0.1411 H   0  0  0  0  0  0  0  0  0  0  0  0
   -3.1580    0.2179    1.4333 H   0  0  0  0  0  0  0  0  0  0  0  0
   -2.6166   -1.2442   -0.1672 O   0  0  0  0  0  1  0  0  0  0  0  0
  1  3  1  0  0  0  0
  2  1  1  0  0  0  0
  4  1  1  0  0  0  0
  4  7  1  0  0  0  0
  4  5  1  0  0  0  0
  6  4  1  0  0  0  0
  8  1  1  0  0  0  0
  8 10  1  0  0  0  0
  8 11  1  0  0  0  0
  9  8  1  0  0  0  0
 11 13  1  0  0  0  0
 12 11  1  0  0  0  0
 14 11  1  0  0  0  0
M  END
$$$$
Title Card Required
 OpenBabel07152211483D

 14 13  0  0  0  0  0  0  0  0999 V2000
   -1.1119    0.9634   -0.0385 C   0  0  0  0  0  0  0  0  0  0  0  0
   -0.4091    1.6349   -0.5614 H   0  0  0  0  0  0  0  0  0  0  0  0
   -1.1117    1.1155    1.0716 H   0  0  0  0  0  0  0  0  0  0  0  0
   -0.4640   -0.3756   -0.1241 C   0  0  0  0  0  0  0  0  0  0  0  0
   -0.3926   -1.2036    0.5353 H   0  0  0  0  0  0  0  0  0  0  0  0
   -0.5149   -0.9828   -1.1273 H   0  0  0  0  0  0  0  0  0  0  0  0
    1.8449   -0.0109    0.0569 Br  0  0  0  0  0  0  0  0  0  0  0  0
   -2.5881    1.0009   -0.3877 C   0  0  0  0  0  0  0  0  0  0  0  0
   -3.0902    0.8179   -1.4211 H   0  0  0  0  0  0  0  0  0  0  0  0
   -2.7918    1.9102    0.1860 H   0  0  0  0  0  0  0  0  0  0  0  0
   -3.1729   -0.1576    0.3897 C   0  0  0  0  0  0  0  0  0  0  0  0
   -4.2989    0.0364    0.0282 H   0  0  0  0  0  0  0  0  0  0  0  0
   -3.1171    0.2376    1.4348 H   0  0  0  0  0  0  0  0  0  0  0  0
   -2.6075   -1.2447   -0.1693 O   0  0  0  0  0  1  0  0  0  0  0  0
  1  3  1  0  0  0  0
  2  1  1  0  0  0  0
  4  1  1  0  0  0  0
  4  7  1  0  0  0  0
  4  5  1  0  0  0  0
  6  4  1  0  0  0  0
  8  1  1  0  0  0  0
  8 10  1  0  0  0  0
  8 11  1  0  0  0  0
  9  8  1  0  0  0  0
 11 13  1  0  0  0  0
 12 11  1  0  0  0  0
 14 11  1  0  0  0  0
M  END
$$$$
Title Card Required
 OpenBabel07152211483D

 14 13  0  0  0  0  0  0  0  0999 V2000
   -1.1119    0.9541   -0.0144 C   0  0  0  0  0  0  0  0  0  0  0  0
   -0.4210    1.6643   -0.6913 H   0  0  0  0  0  0  0  0  0  0  0  0
   -1.1061    1.1151    1.0568 H   0  0  0  0  0  0  0  0  0  0  0  0
   -0.4747   -0.3769   -0.1331 C   0  0  0  0  0  0  0  0  0  0  0  0
   -0.4097   -1.1712    0.5593 H   0  0  0  0  0  0  0  0  0  0  0  0
   -0.5355   -0.9423   -1.0839 H   0  0  0  0  0  0  0  0  0  0  0  0
    1.8433   -0.0112    0.0572 Br  0  0  0  0  0  0  0  0  0  0  0  0
   -2.5891    1.0051   -0.4055 C   0  0  0  0  0  0  0  0  0  0  0  0
   -3.0911    0.8658   -1.3347 H   0  0  0  0  0  0  0  0  0  0  0  0
   -2.8170    1.9314    0.1508 H   0  0  0  0  0  0  0  0  0  0  0  0
   -3.1592   -0.1668    0.3969 C   0  0  0  0  0  0  0  0  0  0  0  0
   -4.3151    0.1016   -0.0561 H   0  0  0  0  0  0  0  0  0  0  0  0
   -3.0719    0.2274    1.4549 H   0  0  0  0  0  0  0  0  0  0  0  0
   -2.5983   -1.2454   -0.1685 O   0  0  0  0  0  1  0  0  0  0  0  0
  1  3  1  0  0  0  0
  2  1  1  0  0  0  0
  4  1  1  0  0  0  0
  4  7  1  0  0  0  0
  4  5  1  0  0  0  0
  6  4  1  0  0  0  0
  8  1  1  0  0  0  0
  8 10  1  0  0  0  0
  8 11  1  0  0  0  0
  9  8  1  0  0  0  0
 11 13  1  0  0  0  0
 12 11  1  0  0  0  0
 14 11  1  0  0  0  0
M  END
$$$$
Title Card Required
 OpenBabel07152211483D

 14 13  0  0  0  0  0  0  0  0999 V2000
   -1.1068    0.9452    0.0056 C   0  0  0  0  0  0  0  0  0  0  0  0
   -0.4769    1.6668   -0.7801 H   0  0  0  0  0  0  0  0  0  0  0  0
   -1.0905    1.1485    1.0513 H   0  0  0  0  0  0  0  0  0  0  0  0
   -0.4867   -0.3829   -0.1482 C   0  0  0  0  0  0  0  0  0  0  0  0
   -0.4344   -1.1376    0.6322 H   0  0  0  0  0  0  0  0  0  0  0  0
   -0.5471   -0.8725   -1.0438 H   0  0  0  0  0  0  0  0  0  0  0  0
    1.8412   -0.0116    0.0575 Br  0  0  0  0  0  0  0  0  0  0  0  0
   -2.5880    1.0118   -0.4166 C   0  0  0  0  0  0  0  0  0  0  0  0
   -3.0696    0.9307   -1.2917 H   0  0  0  0  0  0  0  0  0  0  0  0
   -2.8747    1.9694    0.0878 H   0  0  0  0  0  0  0  0  0  0  0  0
   -3.1492   -0.1741    0.3958 C   0  0  0  0  0  0  0  0  0  0  0  0
   -4.2948    0.1363   -0.0905 H   0  0  0  0  0  0  0  0  0  0  0  0
   -3.0278    0.1770    1.4842 H   0  0  0  0  0  0  0  0  0  0  0  0
   -2.5884   -1.2461   -0.1640 O   0  0  0  0  0  1  0  0  0  0  0  0
  1  3  1  0  0  0  0
  2  1  1  0  0  0  0
  4  1  1  0  0  0  0
  4  7  1  0  0  0  0
  4  5  1  0  0  0  0
  6  4  1  0  0  0  0
  8  1  1  0  0  0  0
  8 10  1  0  0  0  0
  8 11  1  0  0  0  0
  9  8  1  0  0  0  0
 11 13  1  0  0  0  0
 12 11  1  0  0  0  0
 14 11  1  0  0  0  0
M  END
$$$$
Title Card Required
 OpenBabel07152211483D

 14 13  0  0  0  0  0  0  0  0999 V2000
   -1.0983    0.9398    0.0137 C   0  0  0  0  0  0  0  0  0  0  0  0
   -0.5628    1.6340   -0.7897 H   0  0  0  0  0  0  0  0  0  0  0  0
   -1.0662    1.2128    1.0686 H   0  0  0  0  0  0  0  0  0  0  0  0
   -0.4977   -0.3902   -0.1581 C   0  0  0  0  0  0  0  0  0  0  0  0
   -0.4604   -1.0932    0.7109 H   0  0  0  0  0  0  0  0  0  0  0  0
   -0.5494   -0.8289   -1.0806 H   0  0  0  0  0  0  0  0  0  0  0  0
    1.8392   -0.0120    0.0577 Br  0  0  0  0  0  0  0  0  0  0  0  0
   -2.5826    1.0210   -0.4123 C   0  0  0  0  0  0  0  0  0  0  0  0
   -3.0572    0.9855   -1.3658 H   0  0  0  0  0  0  0  0  0  0  0  0
   -2.9419    2.0034    0.0127 H   0  0  0  0  0  0  0  0  0  0  0  0
   -3.1449   -0.1770    0.3867 C   0  0  0  0  0  0  0  0  0  0  0  0
   -4.2460    0.1250   -0.0602 H   0  0  0  0  0  0  0  0  0  0  0  0
   -2.9998    0.0971    1.5019 H   0  0  0  0  0  0  0  0  0  0  0  0
   -2.5795   -1.2469   -0.1568 O   0  0  0  0  0  1  0  0  0  0  0  0
  1  3  1  0  0  0  0
  2  1  1  0  0  0  0
  4  1  1  0  0  0  0
  4  7  1  0  0  0  0
  4  5  1  0  0  0  0
  6  4  1  0  0  0  0
  8 10  1  0  0  0  0
  8  1  1  0  0  0  0
  8 11  1  0  0  0  0
  9  8  1  0  0  0  0
 11 13  1  0  0  0  0
 12 11  1  0  0  0  0
 14 11  1  0  0  0  0
M  END
$$$$
Title Card Required
 OpenBabel07152211483D

 14 13  0  0  0  0  0  0  0  0999 V2000
   -1.0902    0.9383    0.0137 C   0  0  0  0  0  0  0  0  0  0  0  0
   -0.6398    1.5928   -0.7522 H   0  0  0  0  0  0  0  0  0  0  0  0
   -1.0394    1.2801    1.0835 H   0  0  0  0  0  0  0  0  0  0  0  0
   -0.5072   -0.3976   -0.1604 C   0  0  0  0  0  0  0  0  0  0  0  0
   -0.4813   -1.0421    0.7572 H   0  0  0  0  0  0  0  0  0  0  0  0
   -0.5445   -0.8162   -1.1620 H   0  0  0  0  0  0  0  0  0  0  0  0
    1.8375   -0.0123    0.0578 Br  0  0  0  0  0  0  0  0  0  0  0  0
   -2.5772    1.0304   -0.4014 C   0  0  0  0  0  0  0  0  0  0  0  0
   -3.0332    1.0218   -1.4676 H   0  0  0  0  0  0  0  0  0  0  0  0
   -2.9959    2.0236   -0.0530 H   0  0  0  0  0  0  0  0  0  0  0  0
   -3.1444   -0.1766    0.3747 C   0  0  0  0  0  0  0  0  0  0  0  0
   -4.1960    0.0840    0.0045 H   0  0  0  0  0  0  0  0  0  0  0  0
   -2.9887    0.0173    1.5029 H   0  0  0  0  0  0  0  0  0  0  0  0
   -2.5723   -1.2477   -0.1494 O   0  0  0  0  0  1  0  0  0  0  0  0
  1  3  1  0  0  0  0
  2  1  1  0  0  0  0
  4  1  1  0  0  0  0
  4  7  1  0  0  0  0
  4  5  1  0  0  0  0
  6  4  1  0  0  0  0
  8 10  1  0  0  0  0
  8  1  1  0  0  0  0
  8 11  1  0  0  0  0
  9  8  1  0  0  0  0
 11 13  1  0  0  0  0
 12 11  1  0  0  0  0
 14 11  1  0  0  0  0
M  END
$$$$
Title Card Required
 OpenBabel07152211483D

 14 13  0  0  0  0  0  0  0  0999 V2000
   -1.0827    0.9393    0.0112 C   0  0  0  0  0  0  0  0  0  0  0  0
   -0.6996    1.5605   -0.7019 H   0  0  0  0  0  0  0  0  0  0  0  0
   -1.0077    1.3475    1.0808 H   0  0  0  0  0  0  0  0  0  0  0  0
   -0.5176   -0.4070   -0.1603 C   0  0  0  0  0  0  0  0  0  0  0  0
   -0.4993   -0.9859    0.7784 H   0  0  0  0  0  0  0  0  0  0  0  0
   -0.5319   -0.8091   -1.2408 H   0  0  0  0  0  0  0  0  0  0  0  0
    1.8358   -0.0126    0.0578 Br  0  0  0  0  0  0  0  0  0  0  0  0
   -2.5733    1.0408   -0.3891 C   0  0  0  0  0  0  0  0  0  0  0  0
   -2.9787    1.0473   -1.5493 H   0  0  0  0  0  0  0  0  0  0  0  0
   -3.0413    2.0347   -0.1149 H   0  0  0  0  0  0  0  0  0  0  0  0
   -3.1454   -0.1741    0.3604 C   0  0  0  0  0  0  0  0  0  0  0  0
   -4.1584    0.0210    0.0911 H   0  0  0  0  0  0  0  0  0  0  0  0
   -2.9876   -0.0637    1.4912 H   0  0  0  0  0  0  0  0  0  0  0  0
   -2.5649   -1.2491   -0.1416 O   0  0  0  0  0  1  0  0  0  0  0  0
  1  3  1  0  0  0  0
  2  1  1  0  0  0  0
  4  1  1  0  0  0  0
  4  7  1  0  0  0  0
  4  5  1  0  0  0  0
  6  4  1  0  0  0  0
  8 10  1  0  0  0  0
  8  1  1  0  0  0  0
  8 11  1  0  0  0  0
  9  8  1  0  0  0  0
 11 13  1  0  0  0  0
 12 11  1  0  0  0  0
 14 11  1  0  0  0  0
M  END
$$$$
Title Card Required
 OpenBabel07152211483D

 14 13  0  0  0  0  0  0  0  0999 V2000
   -1.0775    0.9415    0.0102 C   0  0  0  0  0  0  0  0  0  0  0  0
   -0.7183    1.5706   -0.6783 H   0  0  0  0  0  0  0  0  0  0  0  0
   -0.9682    1.4118    1.0488 H   0  0  0  0  0  0  0  0  0  0  0  0
   -0.5310   -0.4197   -0.1614 C   0  0  0  0  0  0  0  0  0  0  0  0
   -0.5130   -0.9318    0.7800 H   0  0  0  0  0  0  0  0  0  0  0  0
   -0.5098   -0.7957   -1.2825 H   0  0  0  0  0  0  0  0  0  0  0  0
    1.8339   -0.0129    0.0579 Br  0  0  0  0  0  0  0  0  0  0  0  0
   -2.5713    1.0534   -0.3764 C   0  0  0  0  0  0  0  0  0  0  0  0
   -2.8812    1.0600   -1.5891 H   0  0  0  0  0  0  0  0  0  0  0  0
   -3.0781    2.0371   -0.1740 H   0  0  0  0  0  0  0  0  0  0  0  0
   -3.1451   -0.1703    0.3439 C   0  0  0  0  0  0  0  0  0  0  0  0
   -4.1673   -0.0649    0.1941 H   0  0  0  0  0  0  0  0  0  0  0  0
   -2.9944   -0.1440    1.4683 H   0  0  0  0  0  0  0  0  0  0  0  0
   -2.5558   -1.2515   -0.1332 O   0  0  0  0  0  1  0  0  0  0  0  0
  1  3  1  0  0  0  0
  2  1  1  0  0  0  0
  4  1  1  0  0  0  0
  4  7  1  0  0  0  0
  4  5  1  0  0  0  0
  6  4  1  0  0  0  0
  8 10  1  0  0  0  0
  8  1  1  0  0  0  0
  8 11  1  0  0  0  0
  9  8  1  0  0  0  0
 11 13  1  0  0  0  0
 12 11  1  0  0  0  0
 14 11  1  0  0  0  0
M  END
$$$$
Title Card Required
 OpenBabel07152211483D

 14 12  0  0  0  0  0  0  0  0999 V2000
   -1.0760    0.9445    0.0120 C   0  0  0  0  0  0  0  0  0  0  0  0
   -0.6832    1.6321   -0.7036 H   0  0  0  0  0  0  0  0  0  0  0  0
   -0.9278    1.4554    0.9966 H   0  0  0  0  0  0  0  0  0  0  0  0
   -0.5459   -0.4324   -0.1656 C   0  0  0  0  0  3  0  0  0  0  0  0
   -0.5176   -0.9049    0.7759 H   0  0  0  0  0  0  0  0  0  0  0  0
   -0.4835   -0.7776   -1.2643 H   0  0  0  0  0  0  0  0  0  0  0  0
    1.8322   -0.0131    0.0579 Br  0  0  0  0  0 15  0  0  0  0  0  0
   -2.5717    1.0656   -0.3667 C   0  0  0  0  0  0  0  0  0  0  0  0
   -2.7621    1.0550   -1.5708 H   0  0  0  0  0  0  0  0  0  0  0  0
   -3.0984    2.0334   -0.2150 H   0  0  0  0  0  0  0  0  0  0  0  0
   -3.1427   -0.1665    0.3289 C   0  0  0  0  0  0  0  0  0  0  0  0
   -4.2367   -0.1541    0.2855 H   0  0  0  0  0  0  0  0  0  0  0  0
   -3.0033   -0.1999    1.4452 H   0  0  0  0  0  0  0  0  0  0  0  0
   -2.5459   -1.2548   -0.1264 O   0  0  0  0  0  1  0  0  0  0  0  0
  1  3  1  0  0  0  0
  2  1  1  0  0  0  0
  4  1  1  0  0  0  0
  4  5  1  0  0  0  0
  6  4  1  0  0  0  0
  8 10  1  0  0  0  0
  8  1  1  0  0  0  0
  8 11  1  0  0  0  0
  9  8  1  0  0  0  0
 11 13  1  0  0  0  0
 12 11  1  0  0  0  0
 14 11  1  0  0  0  0
M  END
$$$$
Title Card Required
 OpenBabel07152211483D

 14 12  0  0  0  0  0  0  0  0999 V2000
   -1.0763    0.9506    0.0129 C   0  0  0  0  0  0  0  0  0  0  0  0
   -0.6249    1.7012   -0.7406 H   0  0  0  0  0  0  0  0  0  0  0  0
   -0.8880    1.4804    0.9440 H   0  0  0  0  0  0  0  0  0  0  0  0
   -0.5618   -0.4432   -0.1721 C   0  0  0  0  0  3  0  0  0  0  0  0
   -0.5131   -0.9087    0.7777 H   0  0  0  0  0  0  0  0  0  0  0  0
   -0.4567   -0.7624   -1.2083 H   0  0  0  0  0  0  0  0  0  0  0  0
    1.8306   -0.0133    0.0579 Br  0  0  0  0  0 15  0  0  0  0  0  0
   -2.5733    1.0765   -0.3602 C   0  0  0  0  0  0  0  0  0  0  0  0
   -2.6398    1.0351   -1.5123 H   0  0  0  0  0  0  0  0  0  0  0  0
   -3.1069    2.0300   -0.2367 H   0  0  0  0  0  0  0  0  0  0  0  0
   -3.1410   -0.1635    0.3160 C   0  0  0  0  0  0  0  0  0  0  0  0
   -4.3213   -0.2391    0.3601 H   0  0  0  0  0  0  0  0  0  0  0  0
   -3.0094   -0.2273    1.4289 H   0  0  0  0  0  0  0  0  0  0  0  0
   -2.5354   -1.2587   -0.1214 O   0  0  0  0  0  1  0  0  0  0  0  0
  1  3  1  0  0  0  0
  2  1  1  0  0  0  0
  4  1  1  0  0  0  0
  4  5  1  0  0  0  0
  6  4  1  0  0  0  0
  8 10  1  0  0  0  0
  8  1  1  0  0  0  0
  8 11  1  0  0  0  0
  9  8  1  0  0  0  0
 11 12  1  0  0  0  0
 11 13  1  0  0  0  0
 14 11  1  0  0  0  0
M  END
$$$$
Title Card Required
 OpenBabel07152211483D

 14 12  0  0  0  0  0  0  0  0999 V2000
   -1.0768    0.9619    0.0097 C   0  0  0  0  0  0  0  0  0  0  0  0
   -0.5619    1.7512   -0.7641 H   0  0  0  0  0  0  0  0  0  0  0  0
   -0.8429    1.4952    0.9028 H   0  0  0  0  0  0  0  0  0  0  0  0
   -0.5809   -0.4524   -0.1783 C   0  0  0  0  0  3  0  0  0  0  0  0
   -0.4995   -0.9387    0.7824 H   0  0  0  0  0  0  0  0  0  0  0  0
   -0.4256   -0.7589   -1.1427 H   0  0  0  0  0  0  0  0  0  0  0  0
    1.8289   -0.0135    0.0579 Br  0  0  0  0  0 15  0  0  0  0  0  0
   -2.5752    1.0865   -0.3550 C   0  0  0  0  0  0  0  0  0  0  0  0
   -2.5140    1.0001   -1.4301 H   0  0  0  0  0  0  0  0  0  0  0  0
   -3.1086    2.0318   -0.2418 H   0  0  0  0  0  0  0  0  0  0  0  0
   -3.1428   -0.1619    0.3045 C   0  0  0  0  0  0  0  0  0  0  0  0
   -4.3908   -0.3221    0.4211 H   0  0  0  0  0  0  0  0  0  0  0  0
   -3.0115   -0.2273    1.4191 H   0  0  0  0  0  0  0  0  0  0  0  0
   -2.5229   -1.2631   -0.1180 O   0  0  0  0  0  1  0  0  0  0  0  0
  1  3  1  0  0  0  0
  2  1  1  0  0  0  0
  4  1  1  0  0  0  0
  4  5  1  0  0  0  0
  6  4  1  0  0  0  0
  8 10  1  0  0  0  0
  8  1  1  0  0  0  0
  8 11  1  0  0  0  0
  9  8  1  0  0  0  0
 11 12  1  0  0  0  0
 11 13  1  0  0  0  0
 14 11  1  0  0  0  0
M  END
$$$$
Title Card Required
 OpenBabel07152211483D

 14 12  0  0  0  0  0  0  0  0999 V2000
   -1.0761    0.9806    0.0002 C   0  0  0  0  0  0  0  0  0  0  0  0
   -0.5052    1.7629   -0.7606 H   0  0  0  0  0  0  0  0  0  0  0  0
   -0.7858    1.5038    0.8883 H   0  0  0  0  0  0  0  0  0  0  0  0
   -0.6062   -0.4594   -0.1791 C   0  0  0  0  0  3  0  0  0  0  0  0
   -0.4755   -0.9910    0.7766 H   0  0  0  0  0  0  0  0  0  0  0  0
   -0.3813   -0.7852   -1.1131 H   0  0  0  0  0  0  0  0  0  0  0  0
    1.8272   -0.0137    0.0579 Br  0  0  0  0  0 15  0  0  0  0  0  0
   -2.5768    1.0960   -0.3485 C   0  0  0  0  0  0  0  0  0  0  0  0
   -2.3878    0.9449   -1.3574 H   0  0  0  0  0  0  0  0  0  0  0  0
   -3.1057    2.0432   -0.2293 H   0  0  0  0  0  0  0  0  0  0  0  0
   -3.1502   -0.1632    0.2952 C   0  0  0  0  0  0  0  0  0  0  0  0
   -4.4233   -0.3989    0.4617 H   0  0  0  0  0  0  0  0  0  0  0  0
   -3.0083   -0.1922    1.4147 H   0  0  0  0  0  0  0  0  0  0  0  0
   -2.5070   -1.2681   -0.1165 O   0  0  0  0  0  1  0  0  0  0  0  0
  1  3  1  0  0  0  0
  2  1  1  0  0  0  0
  4  1  1  0  0  0  0
  4  5  1  0  0  0  0
  6  4  1  0  0  0  0
  8 10  1  0  0  0  0
  8  1  1  0  0  0  0
  8 11  1  0  0  0  0
  9  8  1  0  0  0  0
 11 12  1  0  0  0  0
 11 13  1  0  0  0  0
 14 11  1  0  0  0  0
M  END
$$$$
Title Card Required
 OpenBabel07152211483D

 14 12  0  0  0  0  0  0  0  0999 V2000
   -1.0734    1.0039   -0.0136 C   0  0  0  0  0  0  0  0  0  0  0  0
   -0.4718    1.7287   -0.7298 H   0  0  0  0  0  0  0  0  0  0  0  0
   -0.7267    1.5021    0.9041 H   0  0  0  0  0  0  0  0  0  0  0  0
   -0.6350   -0.4639   -0.1719 C   0  0  0  0  0  3  0  0  0  0  0  0
   -0.4475   -1.0461    0.7496 H   0  0  0  0  0  0  0  0  0  0  0  0
   -0.3282   -0.8406   -1.1379 H   0  0  0  0  0  0  0  0  0  0  0  0
    1.8257   -0.0138    0.0579 Br  0  0  0  0  0 15  0  0  0  0  0  0
   -2.5778    1.1035   -0.3394 C   0  0  0  0  0  0  0  0  0  0  0  0
   -2.2899    0.8781   -1.3432 H   0  0  0  0  0  0  0  0  0  0  0  0
   -3.0988    2.0611   -0.2057 H   0  0  0  0  0  0  0  0  0  0  0  0
   -3.1623   -0.1682    0.2908 C   0  0  0  0  0  0  0  0  0  0  0  0
   -4.4023   -0.4500    0.4674 H   0  0  0  0  0  0  0  0  0  0  0  0
   -3.0007   -0.1267    1.4129 H   0  0  0  0  0  0  0  0  0  0  0  0
   -2.4895   -1.2721   -0.1173 O   0  0  0  0  0  1  0  0  0  0  0  0
  1  3  1  0  0  0  0
  2  1  1  0  0  0  0
  4  1  1  0  0  0  0
  4  5  1  0  0  0  0
  6  4  1  0  0  0  0
  8 10  1  0  0  0  0
  8  1  1  0  0  0  0
  8 11  1  0  0  0  0
  9  8  1  0  0  0  0
 11 12  1  0  0  0  0
 11 13  1  0  0  0  0
 14 11  1  0  0  0  0
M  END
$$$$
Title Card Required
 OpenBabel07152211483D

 14 12  0  0  0  0  0  0  0  0999 V2000
   -1.0685    1.0282   -0.0268 C   0  0  0  0  0  0  0  0  0  0  0  0
   -0.4586    1.6674   -0.6894 H   0  0  0  0  0  0  0  0  0  0  0  0
   -0.6770    1.4860    0.9309 H   0  0  0  0  0  0  0  0  0  0  0  0
   -0.6645   -0.4680   -0.1623 C   0  0  0  0  0  3  0  0  0  0  0  0
   -0.4210   -1.0914    0.7080 H   0  0  0  0  0  0  0  0  0  0  0  0
   -0.2837   -0.8972   -1.1658 H   0  0  0  0  0  0  0  0  0  0  0  0
    1.8245   -0.0139    0.0578 Br  0  0  0  0  0 15  0  0  0  0  0  0
   -2.5778    1.1085   -0.3303 C   0  0  0  0  0  0  0  0  0  0  0  0
   -2.2331    0.8150   -1.3685 H   0  0  0  0  0  0  0  0  0  0  0  0
   -3.0882    2.0779   -0.1816 H   0  0  0  0  0  0  0  0  0  0  0  0
   -3.1766   -0.1757    0.2912 C   0  0  0  0  0  0  0  0  0  0  0  0
   -4.3396   -0.4733    0.4416 H   0  0  0  0  0  0  0  0  0  0  0  0
   -2.9911   -0.0474    1.4101 H   0  0  0  0  0  0  0  0  0  0  0  0
   -2.4717   -1.2744   -0.1195 O   0  0  0  0  0  1  0  0  0  0  0  0
  1  3  1  0  0  0  0
  2  1  1  0  0  0  0
  4  1  1  0  0  0  0
  4  5  1  0  0  0  0
  6  4  1  0  0  0  0
  8 10  1  0  0  0  0
  8  1  1  0  0  0  0
  8 11  1  0  0  0  0
  9  8  1  0  0  0  0
 11 12  1  0  0  0  0
 11 13  1  0  0  0  0
 14 11  1  0  0  0  0
M  END
$$$$
Title Card Required
 OpenBabel07152211483D

 14 12  0  0  0  0  0  0  0  0999 V2000
   -1.0620    1.0524   -0.0369 C   0  0  0  0  0  0  0  0  0  0  0  0
   -0.4497    1.5997   -0.6602 H   0  0  0  0  0  0  0  0  0  0  0  0
   -0.6402    1.4533    0.9555 H   0  0  0  0  0  0  0  0  0  0  0  0
   -0.6956   -0.4740   -0.1539 C   0  0  0  0  0  3  0  0  0  0  0  0
   -0.3962   -1.1269    0.6606 H   0  0  0  0  0  0  0  0  0  0  0  0
   -0.2580   -0.9388   -1.1643 H   0  0  0  0  0  0  0  0  0  0  0  0
    1.8236   -0.0139    0.0578 Br  0  0  0  0  0 15  0  0  0  0  0  0
   -2.5764    1.1112   -0.3234 C   0  0  0  0  0  0  0  0  0  0  0  0
   -2.2201    0.7645   -1.4003 H   0  0  0  0  0  0  0  0  0  0  0  0
   -3.0735    2.0902   -0.1614 H   0  0  0  0  0  0  0  0  0  0  0  0
   -3.1917   -0.1848    0.2955 C   0  0  0  0  0  0  0  0  0  0  0  0
   -4.2503   -0.4752    0.3903 H   0  0  0  0  0  0  0  0  0  0  0  0
   -2.9814    0.0379    1.4041 H   0  0  0  0  0  0  0  0  0  0  0  0
   -2.4524   -1.2750   -0.1226 O   0  0  0  0  0  1  0  0  0  0  0  0
  1  3  1  0  0  0  0
  2  1  1  0  0  0  0
  4  1  1  0  0  0  0
  4  5  1  0  0  0  0
  6  4  1  0  0  0  0
  8 10  1  0  0  0  0
  8  1  1  0  0  0  0
  8 11  1  0  0  0  0
  9  8  1  0  0  0  0
 11 12  1  0  0  0  0
 11 13  1  0  0  0  0
 14 11  1  0  0  0  0
M  END
$$$$
Title Card Required
 OpenBabel07152211483D

 14 12  0  0  0  0  0  0  0  0999 V2000
   -1.0554    1.0743   -0.0407 C   0  0  0  0  0  0  0  0  0  0  0  0
   -0.4197    1.5497   -0.6708 H   0  0  0  0  0  0  0  0  0  0  0  0
   -0.6200    1.4040    0.9705 H   0  0  0  0  0  0  0  0  0  0  0  0
   -0.7303   -0.4832   -0.1484 C   0  0  0  0  0  3  0  0  0  0  0  0
   -0.3719   -1.1538    0.6162 H   0  0  0  0  0  0  0  0  0  0  0  0
   -0.2590   -0.9573   -1.1231 H   0  0  0  0  0  0  0  0  0  0  0  0
    1.8229   -0.0138    0.0578 Br  0  0  0  0  0 15  0  0  0  0  0  0
   -2.5730    1.1112   -0.3204 C   0  0  0  0  0  0  0  0  0  0  0  0
   -2.2572    0.7345   -1.4204 H   0  0  0  0  0  0  0  0  0  0  0  0
   -3.0550    2.0960   -0.1474 H   0  0  0  0  0  0  0  0  0  0  0  0
   -3.2040   -0.1943    0.3036 C   0  0  0  0  0  0  0  0  0  0  0  0
   -4.1701   -0.4650    0.3155 H   0  0  0  0  0  0  0  0  0  0  0  0
   -2.9743    0.1226    1.3929 H   0  0  0  0  0  0  0  0  0  0  0  0
   -2.4302   -1.2733   -0.1265 O   0  0  0  0  0  1  0  0  0  0  0  0
  1  3  1  0  0  0  0
  2  1  1  0  0  0  0
  4  1  1  0  0  0  0
  4  5  1  0  0  0  0
  6  4  1  0  0  0  0
  8 10  1  0  0  0  0
  8  1  1  0  0  0  0
  8 11  1  0  0  0  0
  9  8  1  0  0  0  0
 11 12  1  0  0  0  0
 11 13  1  0  0  0  0
 14 11  1  0  0  0  0
M  END
$$$$
Title Card Required
 OpenBabel07152211483D

 14 13  0  0  0  0  0  0  0  0999 V2000
   -1.0504    1.0898   -0.0371 C   0  0  0  0  0  0  0  0  0  0  0  0
   -0.3627    1.5306   -0.7289 H   0  0  0  0  0  0  0  0  0  0  0  0
   -0.6193    1.3483    0.9717 H   0  0  0  0  0  0  0  0  0  0  0  0
   -0.7664   -0.4950   -0.1463 C   0  0  0  0  0  0  0  0  0  0  0  0
   -0.3502   -1.1695    0.5881 H   0  0  0  0  0  0  0  0  0  0  0  0
   -0.2878   -0.9502   -1.0545 H   0  0  0  0  0  0  0  0  0  0  0  0
    1.8226   -0.0136    0.0578 Br  0  0  0  0  0 15  0  0  0  0  0  0
   -2.5678    1.1085   -0.3223 C   0  0  0  0  0  0  0  0  0  0  0  0
   -2.3391    0.7331   -1.4192 H   0  0  0  0  0  0  0  0  0  0  0  0
   -3.0368    2.0942   -0.1422 H   0  0  0  0  0  0  0  0  0  0  0  0
   -3.2062   -0.2010    0.3143 C   0  0  0  0  0  0  0  0  0  0  0  0
   -4.1679   -0.4606    0.2278 H   0  0  0  0  0  0  0  0  0  0  0  0
   -2.9752    0.1881    1.3772 H   0  0  0  0  0  0  0  0  0  0  0  0
   -2.4066   -1.2689   -0.1303 O   0  0  0  0  0  0  0  0  0  0  0  0
  1  3  1  0  0  0  0
  2  1  1  0  0  0  0
  4 14  1  0  0  0  0
  4  1  1  0  0  0  0
  4  5  1  0  0  0  0
  6  4  1  0  0  0  0
  8 10  1  0  0  0  0
  8  1  1  0  0  0  0
  8 11  1  0  0  0  0
  9  8  1  0  0  0  0
 11 13  1  0  0  0  0
 12 11  1  0  0  0  0
 14 11  1  0  0  0  0
M  END
$$$$
Title Card Required
 OpenBabel07152211483D

 14 13  0  0  0  0  0  0  0  0999 V2000
   -1.0460    1.0987   -0.0305 C   0  0  0  0  0  0  0  0  0  0  0  0
   -0.3094    1.5247   -0.7955 H   0  0  0  0  0  0  0  0  0  0  0  0
   -0.6311    1.3008    0.9658 H   0  0  0  0  0  0  0  0  0  0  0  0
   -0.8010   -0.5075   -0.1457 C   0  0  0  0  0  0  0  0  0  0  0  0
   -0.3337   -1.1727    0.5794 H   0  0  0  0  0  0  0  0  0  0  0  0
   -0.3289   -0.9297   -0.9920 H   0  0  0  0  0  0  0  0  0  0  0  0
    1.8226   -0.0133    0.0578 Br  0  0  0  0  0 15  0  0  0  0  0  0
   -2.5621    1.1040   -0.3276 C   0  0  0  0  0  0  0  0  0  0  0  0
   -2.4400    0.7545   -1.4031 H   0  0  0  0  0  0  0  0  0  0  0  0
   -3.0233    2.0877   -0.1437 H   0  0  0  0  0  0  0  0  0  0  0  0
   -3.1995   -0.2040    0.3253 C   0  0  0  0  0  0  0  0  0  0  0  0
   -4.2304   -0.4627    0.1403 H   0  0  0  0  0  0  0  0  0  0  0  0
   -2.9860    0.2239    1.3619 H   0  0  0  0  0  0  0  0  0  0  0  0
   -2.3843   -1.2625   -0.1334 O   0  0  0  0  0  0  0  0  0  0  0  0
  1  3  1  0  0  0  0
  2  1  1  0  0  0  0
  4 14  1  0  0  0  0
  4  1  1  0  0  0  0
  4  5  1  0  0  0  0
  6  4  1  0  0  0  0
  8 10  1  0  0  0  0
  8  1  1  0  0  0  0
  8 11  1  0  0  0  0
  9  8  1  0  0  0  0
 11 13  1  0  0  0  0
 12 11  1  0  0  0  0
 14 11  1  0  0  0  0
M  END
$$$$
Title Card Required
 OpenBabel07152211483D

 14 13  0  0  0  0  0  0  0  0999 V2000
   -1.0407    1.1030   -0.0243 C   0  0  0  0  0  0  0  0  0  0  0  0
   -0.2754    1.5163   -0.8485 H   0  0  0  0  0  0  0  0  0  0  0  0
   -0.6487    1.2629    0.9618 H   0  0  0  0  0  0  0  0  0  0  0  0
   -0.8377   -0.5207   -0.1442 C   0  0  0  0  0  0  0  0  0  0  0  0
   -0.3223   -1.1637    0.5853 H   0  0  0  0  0  0  0  0  0  0  0  0
   -0.3696   -0.9085   -0.9566 H   0  0  0  0  0  0  0  0  0  0  0  0
    1.8228   -0.0131    0.0579 Br  0  0  0  0  0 15  0  0  0  0  0  0
   -2.5559    1.0984   -0.3352 C   0  0  0  0  0  0  0  0  0  0  0  0
   -2.5528    0.7916   -1.3825 H   0  0  0  0  0  0  0  0  0  0  0  0
   -3.0151    2.0782   -0.1488 H   0  0  0  0  0  0  0  0  0  0  0  0
   -3.1889   -0.2048    0.3364 C   0  0  0  0  0  0  0  0  0  0  0  0
   -4.3042   -0.4603    0.0543 H   0  0  0  0  0  0  0  0  0  0  0  0
   -3.0066    0.2349    1.3506 H   0  0  0  0  0  0  0  0  0  0  0  0
   -2.3612   -1.2540   -0.1358 O   0  0  0  0  0  0  0  0  0  0  0  0
  1  3  1  0  0  0  0
  2  1  1  0  0  0  0
  4 14  1  0  0  0  0
  4  1  1  0  0  0  0
  4  5  1  0  0  0  0
  6  4  1  0  0  0  0
  8 10  1  0  0  0  0
  8  1  1  0  0  0  0
  8 11  1  0  0  0  0
  9  8  1  0  0  0  0
 11 13  1  0  0  0  0
 12 11  1  0  0  0  0
 14 11  1  0  0  0  0
M  END
$$$$
Title Card Required
 OpenBabel07152211483D

 14 13  0  0  0  0  0  0  0  0999 V2000
   -1.0346    1.1029   -0.0207 C   0  0  0  0  0  0  0  0  0  0  0  0
   -0.2679    1.5006   -0.8762 H   0  0  0  0  0  0  0  0  0  0  0  0
   -0.6675    1.2376    0.9685 H   0  0  0  0  0  0  0  0  0  0  0  0
   -0.8787   -0.5347   -0.1396 C   0  0  0  0  0  0  0  0  0  0  0  0
   -0.3179   -1.1402    0.6024 H   0  0  0  0  0  0  0  0  0  0  0  0
   -0.3999   -0.8953   -0.9669 H   0  0  0  0  0  0  0  0  0  0  0  0
    1.8234   -0.0127    0.0579 Br  0  0  0  0  0 15  0  0  0  0  0  0
   -2.5495    1.0923   -0.3438 C   0  0  0  0  0  0  0  0  0  0  0  0
   -2.6729    0.8392   -1.3706 H   0  0  0  0  0  0  0  0  0  0  0  0
   -3.0131    2.0672   -0.1545 H   0  0  0  0  0  0  0  0  0  0  0  0
   -3.1775   -0.2042    0.3461 C   0  0  0  0  0  0  0  0  0  0  0  0
   -4.3540   -0.4469   -0.0232 H   0  0  0  0  0  0  0  0  0  0  0  0
   -3.0372    0.2222    1.3493 H   0  0  0  0  0  0  0  0  0  0  0  0
   -2.3366   -1.2429   -0.1376 O   0  0  0  0  0  0  0  0  0  0  0  0
  1  3  1  0  0  0  0
  2  1  1  0  0  0  0
  4 14  1  0  0  0  0
  4  1  1  0  0  0  0
  4  5  1  0  0  0  0
  6  4  1  0  0  0  0
  8 10  1  0  0  0  0
  8  1  1  0  0  0  0
  8 11  1  0  0  0  0
  9  8  1  0  0  0  0
 11 13  1  0  0  0  0
 12 11  1  0  0  0  0
 14 11  1  0  0  0  0
M  END
$$$$
Title Card Required
 OpenBabel07152211483D

 14 13  0  0  0  0  0  0  0  0999 V2000
   -1.0283    1.0981   -0.0211 C   0  0  0  0  0  0  0  0  0  0  0  0
   -0.2870    1.4782   -0.8730 H   0  0  0  0  0  0  0  0  0  0  0  0
   -0.6842    1.2277    0.9883 H   0  0  0  0  0  0  0  0  0  0  0  0
   -0.9213   -0.5490   -0.1324 C   0  0  0  0  0  0  0  0  0  0  0  0
   -0.3221   -1.1036    0.6253 H   0  0  0  0  0  0  0  0  0  0  0  0
   -0.4190   -0.8899   -1.0166 H   0  0  0  0  0  0  0  0  0  0  0  0
    1.8243   -0.0124    0.0580 Br  0  0  0  0  0 15  0  0  0  0  0  0
   -2.5435    1.0864   -0.3517 C   0  0  0  0  0  0  0  0  0  0  0  0
   -2.7876    0.8888   -1.3781 H   0  0  0  0  0  0  0  0  0  0  0  0
   -3.0178    2.0563   -0.1569 H   0  0  0  0  0  0  0  0  0  0  0  0
   -3.1671   -0.2025    0.3527 C   0  0  0  0  0  0  0  0  0  0  0  0
   -4.3626   -0.4226   -0.0809 H   0  0  0  0  0  0  0  0  0  0  0  0
   -3.0745    0.1891    1.3635 H   0  0  0  0  0  0  0  0  0  0  0  0
   -2.3116   -1.2297   -0.1384 O   0  0  0  0  0  0  0  0  0  0  0  0
  1  3  1  0  0  0  0
  2  1  1  0  0  0  0
  4  1  1  0  0  0  0
  4  5  1  0  0  0  0
  6  4  1  0  0  0  0
  8 10  1  0  0  0  0
  8  1  1  0  0  0  0
  8 11  1  0  0  0  0
  9  8  1  0  0  0  0
 11 13  1  0  0  0  0
 12 11  1  0  0  0  0
 14  4  1  0  0  0  0
 14 11  1  0  0  0  0
M  END
$$$$
Title Card Required
 OpenBabel07152211483D

 14 13  0  0  0  0  0  0  0  0999 V2000
   -1.0228    1.0892   -0.0247 C   0  0  0  0  0  0  0  0  0  0  0  0
   -0.3240    1.4526   -0.8447 H   0  0  0  0  0  0  0  0  0  0  0  0
   -0.6997    1.2312    1.0139 H   0  0  0  0  0  0  0  0  0  0  0  0
   -0.9623   -0.5636   -0.1248 C   0  0  0  0  0  0  0  0  0  0  0  0
   -0.3342   -1.0585    0.6488 H   0  0  0  0  0  0  0  0  0  0  0  0
   -0.4368   -0.8848   -1.0770 H   0  0  0  0  0  0  0  0  0  0  0  0
    1.8253   -0.0120    0.0581 Br  0  0  0  0  0 15  0  0  0  0  0  0
   -2.5386    1.0815   -0.3584 C   0  0  0  0  0  0  0  0  0  0  0  0
   -2.8880    0.9360   -1.4002 H   0  0  0  0  0  0  0  0  0  0  0  0
   -3.0276    2.0464   -0.1529 H   0  0  0  0  0  0  0  0  0  0  0  0
   -3.1587   -0.1999    0.3554 C   0  0  0  0  0  0  0  0  0  0  0  0
   -4.3319   -0.3917   -0.1158 H   0  0  0  0  0  0  0  0  0  0  0  0
   -3.1147    0.1416    1.3922 H   0  0  0  0  0  0  0  0  0  0  0  0
   -2.2875   -1.2154   -0.1383 O   0  0  0  0  0  0  0  0  0  0  0  0
  1  3  1  0  0  0  0
  2  1  1  0  0  0  0
  4  1  1  0  0  0  0
  4  5  1  0  0  0  0
  6  4  1  0  0  0  0
  8 10  1  0  0  0  0
  8  1  1  0  0  0  0
  8 11  1  0  0  0  0
  9  8  1  0  0  0  0
 11 13  1  0  0  0  0
 12 11  1  0  0  0  0
 14  4  1  0  0  0  0
 14 11  1  0  0  0  0
M  END
$$$$
Title Card Required
 OpenBabel07152211483D

 14 13  0  0  0  0  0  0  0  0999 V2000
   -1.0186    1.0765   -0.0300 C   0  0  0  0  0  0  0  0  0  0  0  0
   -0.3678    1.4278   -0.8029 H   0  0  0  0  0  0  0  0  0  0  0  0
   -0.7167    1.2449    1.0363 H   0  0  0  0  0  0  0  0  0  0  0  0
   -1.0006   -0.5787   -0.1185 C   0  0  0  0  0  0  0  0  0  0  0  0
   -0.3524   -1.0085    0.6708 H   0  0  0  0  0  0  0  0  0  0  0  0
   -0.4612   -0.8753   -1.1269 H   0  0  0  0  0  0  0  0  0  0  0  0
    1.8266   -0.0116    0.0581 Br  0  0  0  0  0 15  0  0  0  0  0  0
   -2.5352    1.0775   -0.3646 C   0  0  0  0  0  0  0  0  0  0  0  0
   -2.9710    0.9806   -1.4251 H   0  0  0  0  0  0  0  0  0  0  0  0
   -3.0403    2.0369   -0.1415 H   0  0  0  0  0  0  0  0  0  0  0  0
   -3.1519   -0.1962    0.3547 C   0  0  0  0  0  0  0  0  0  0  0  0
   -4.2686   -0.3573   -0.1301 H   0  0  0  0  0  0  0  0  0  0  0  0
   -3.1562    0.0826    1.4297 H   0  0  0  0  0  0  0  0  0  0  0  0
   -2.2646   -1.2000   -0.1372 O   0  0  0  0  0  0  0  0  0  0  0  0
  1  3  1  0  0  0  0
  2  1  1  0  0  0  0
  4  1  1  0  0  0  0
  4  5  1  0  0  0  0
  6  4  1  0  0  0  0
  8 10  1  0  0  0  0
  8  1  1  0  0  0  0
  8 11  1  0  0  0  0
  9  8  1  0  0  0  0
 11 13  1  0  0  0  0
 12 11  1  0  0  0  0
 14  4  1  0  0  0  0
 14 11  1  0  0  0  0
M  END
$$$$
Title Card Required
 OpenBabel07152211483D

 14 13  0  0  0  0  0  0  0  0999 V2000
   -1.0170    1.0596   -0.0353 C   0  0  0  0  0  0  0  0  0  0  0  0
   -0.4047    1.4093   -0.7630 H   0  0  0  0  0  0  0  0  0  0  0  0
   -0.7376    1.2663    1.0484 H   0  0  0  0  0  0  0  0  0  0  0  0
   -1.0360   -0.5943   -0.1140 C   0  0  0  0  0  0  0  0  0  0  0  0
   -0.3755   -0.9559    0.6909 H   0  0  0  0  0  0  0  0  0  0  0  0
   -0.4958   -0.8602   -1.1569 H   0  0  0  0  0  0  0  0  0  0  0  0
    1.8281   -0.0112    0.0582 Br  0  0  0  0  0 15  0  0  0  0  0  0
   -2.5336    1.0746   -0.3709 C   0  0  0  0  0  0  0  0  0  0  0  0
   -3.0346    1.0233   -1.4434 H   0  0  0  0  0  0  0  0  0  0  0  0
   -3.0543    2.0265   -0.1215 H   0  0  0  0  0  0  0  0  0  0  0  0
   -3.1463   -0.1912    0.3513 C   0  0  0  0  0  0  0  0  0  0  0  0
   -4.1791   -0.3219   -0.1270 H   0  0  0  0  0  0  0  0  0  0  0  0
   -3.1987    0.0121    1.4686 H   0  0  0  0  0  0  0  0  0  0  0  0
   -2.2426   -1.1835   -0.1350 O   0  0  0  0  0  0  0  0  0  0  0  0
  1  3  1  0  0  0  0
  2  1  1  0  0  0  0
  4  1  1  0  0  0  0
  4  5  1  0  0  0  0
  6  4  1  0  0  0  0
  8 10  1  0  0  0  0
  8  1  1  0  0  0  0
  8 11  1  0  0  0  0
  9  8  1  0  0  0  0
 11 13  1  0  0  0  0
 12 11  1  0  0  0  0
 14  4  1  0  0  0  0
 14 11  1  0  0  0  0
M  END
$$$$
Title Card Required
 OpenBabel07152211483D

 14 13  0  0  0  0  0  0  0  0999 V2000
   -1.0196    1.0370   -0.0390 C   0  0  0  0  0  0  0  0  0  0  0  0
   -0.4181    1.4057   -0.7436 H   0  0  0  0  0  0  0  0  0  0  0  0
   -0.7646    1.2941    1.0445 H   0  0  0  0  0  0  0  0  0  0  0  0
   -1.0676   -0.6100   -0.1118 C   0  0  0  0  0  0  0  0  0  0  0  0
   -0.4024   -0.9027    0.7096 H   0  0  0  0  0  0  0  0  0  0  0  0
   -0.5419   -0.8398   -1.1613 H   0  0  0  0  0  0  0  0  0  0  0  0
    1.8298   -0.0107    0.0583 Br  0  0  0  0  0 15  0  0  0  0  0  0
   -2.5346    1.0731   -0.3777 C   0  0  0  0  0  0  0  0  0  0  0  0
   -3.0756    1.0640   -1.4489 H   0  0  0  0  0  0  0  0  0  0  0  0
   -3.0678    2.0136   -0.0915 H   0  0  0  0  0  0  0  0  0  0  0  0
   -3.1408   -0.1846    0.3460 C   0  0  0  0  0  0  0  0  0  0  0  0
   -4.0755   -0.2890   -0.1120 H   0  0  0  0  0  0  0  0  0  0  0  0
   -3.2411   -0.0711    1.5004 H   0  0  0  0  0  0  0  0  0  0  0  0
   -2.2224   -1.1659   -0.1318 O   0  0  0  0  0  0  0  0  0  0  0  0
  1  3  1  0  0  0  0
  2  1  1  0  0  0  0
  4  1  1  0  0  0  0
  4  5  1  0  0  0  0
  6  4  1  0  0  0  0
  8 10  1  0  0  0  0
  8  1  1  0  0  0  0
  8 11  1  0  0  0  0
  9  8  1  0  0  0  0
 11 13  1  0  0  0  0
 12 11  1  0  0  0  0
 14  4  1  0  0  0  0
 14 11  1  0  0  0  0
M  END
$$$$
Title Card Required
 OpenBabel07152211483D

 14 13  0  0  0  0  0  0  0  0999 V2000
   -1.0281    1.0074   -0.0401 C   0  0  0  0  0  0  0  0  0  0  0  0
   -0.3964    1.4231   -0.7564 H   0  0  0  0  0  0  0  0  0  0  0  0
   -0.7998    1.3272    1.0202 H   0  0  0  0  0  0  0  0  0  0  0  0
   -1.0924   -0.6244   -0.1122 C   0  0  0  0  0  0  0  0  0  0  0  0
   -0.4316   -0.8523    0.7281 H   0  0  0  0  0  0  0  0  0  0  0  0
   -0.5987   -0.8156   -1.1356 H   0  0  0  0  0  0  0  0  0  0  0  0
    1.8320   -0.0101    0.0584 Br  0  0  0  0  0 15  0  0  0  0  0  0
   -2.5389    1.0738   -0.3849 C   0  0  0  0  0  0  0  0  0  0  0  0
   -3.0884    1.1012   -1.4364 H   0  0  0  0  0  0  0  0  0  0  0  0
   -3.0785    1.9966   -0.0493 H   0  0  0  0  0  0  0  0  0  0  0  0
   -3.1324   -0.1755    0.3405 C   0  0  0  0  0  0  0  0  0  0  0  0
   -3.9920   -0.2661   -0.1015 H   0  0  0  0  0  0  0  0  0  0  0  0
   -3.2816   -0.1668    1.5143 H   0  0  0  0  0  0  0  0  0  0  0  0
   -2.2061   -1.1476   -0.1271 O   0  0  0  0  0  0  0  0  0  0  0  0
  1  3  1  0  0  0  0
  2  1  1  0  0  0  0
  4  1  1  0  0  0  0
  4  5  1  0  0  0  0
  6  4  1  0  0  0  0
  8 10  1  0  0  0  0
  8  1  1  0  0  0  0
  8 11  1  0  0  0  0
  9  8  1  0  0  0  0
 11 13  1  0  0  0  0
 12 11  1  0  0  0  0
 14  4  1  0  0  0  0
 14 11  1  0  0  0  0
M  END
$$$$
Title Card Required
 OpenBabel07152211483D

 14 13  0  0  0  0  0  0  0  0999 V2000
   -1.0425    0.9718   -0.0407 C   0  0  0  0  0  0  0  0  0  0  0  0
   -0.3509    1.4529   -0.7876 H   0  0  0  0  0  0  0  0  0  0  0  0
   -0.8426    1.3628    0.9764 H   0  0  0  0  0  0  0  0  0  0  0  0
   -1.1038   -0.6342   -0.1151 C   0  0  0  0  0  0  0  0  0  0  0  0
   -0.4591   -0.8131    0.7470 H   0  0  0  0  0  0  0  0  0  0  0  0
   -0.6553   -0.7930   -1.0844 H   0  0  0  0  0  0  0  0  0  0  0  0
    1.8346   -0.0095    0.0586 Br  0  0  0  0  0 15  0  0  0  0  0  0
   -2.5472    1.0776   -0.3915 C   0  0  0  0  0  0  0  0  0  0  0  0
   -3.0672    1.1307   -1.4046 H   0  0  0  0  0  0  0  0  0  0  0  0
   -3.0828    1.9756    0.0055 H   0  0  0  0  0  0  0  0  0  0  0  0
   -3.1175   -0.1638    0.3376 C   0  0  0  0  0  0  0  0  0  0  0  0
   -3.9880   -0.2652   -0.1239 H   0  0  0  0  0  0  0  0  0  0  0  0
   -3.3151   -0.2671    1.4988 H   0  0  0  0  0  0  0  0  0  0  0  0
   -2.1986   -1.1305   -0.1210 O   0  0  0  0  0  0  0  0  0  0  0  0
  1  3  1  0  0  0  0
  2  1  1  0  0  0  0
  4  1  1  0  0  0  0
  4  5  1  0  0  0  0
  6  4  1  0  0  0  0
  8  1  1  0  0  0  0
  8 10  1  0  0  0  0
  8 11  1  0  0  0  0
  9  8  1  0  0  0  0
 11 13  1  0  0  0  0
 12 11  1  0  0  0  0
 14  4  1  0  0  0  0
 14 11  1  0  0  0  0
M  END
$$$$
Title Card Required
 OpenBabel07152211483D

 14 13  0  0  0  0  0  0  0  0999 V2000
   -1.0596    0.9361   -0.0441 C   0  0  0  0  0  0  0  0  0  0  0  0
   -0.3131    1.4723   -0.8063 H   0  0  0  0  0  0  0  0  0  0  0  0
   -0.8866    1.3957    0.9269 H   0  0  0  0  0  0  0  0  0  0  0  0
   -1.0974   -0.6362   -0.1179 C   0  0  0  0  0  0  0  0  0  0  0  0
   -0.4784   -0.7946    0.7653 H   0  0  0  0  0  0  0  0  0  0  0  0
   -0.6867   -0.7820   -1.0378 H   0  0  0  0  0  0  0  0  0  0  0  0
    1.8375   -0.0088    0.0588 Br  0  0  0  0  0 15  0  0  0  0  0  0
   -2.5581    1.0845   -0.3953 C   0  0  0  0  0  0  0  0  0  0  0  0
   -3.0193    1.1481   -1.3675 H   0  0  0  0  0  0  0  0  0  0  0  0
   -3.0782    1.9543    0.0663 H   0  0  0  0  0  0  0  0  0  0  0  0
   -3.0992   -0.1517    0.3372 C   0  0  0  0  0  0  0  0  0  0  0  0
   -4.0582   -0.2877   -0.1745 H   0  0  0  0  0  0  0  0  0  0  0  0
   -3.3351   -0.3530    1.4543 H   0  0  0  0  0  0  0  0  0  0  0  0
   -2.2043   -1.1179   -0.1139 O   0  0  0  0  0  0  0  0  0  0  0  0
  1  3  1  0  0  0  0
  2  1  1  0  0  0  0
  4 14  1  0  0  0  0
  4  1  1  0  0  0  0
  4  5  1  0  0  0  0
  6  4  1  0  0  0  0
  8  1  1  0  0  0  0
  8 10  1  0  0  0  0
  8 11  1  0  0  0  0
  9  8  1  0  0  0  0
 11 13  1  0  0  0  0
 12 11  1  0  0  0  0
 14 11  1  0  0  0  0
M  END
$$$$
Title Card Required
 OpenBabel07152211483D

 14 13  0  0  0  0  0  0  0  0999 V2000
   -1.0776    0.9029   -0.0526 C   0  0  0  0  0  0  0  0  0  0  0  0
   -0.3009    1.4679   -0.7981 H   0  0  0  0  0  0  0  0  0  0  0  0
   -0.9277    1.4247    0.8840 H   0  0  0  0  0  0  0  0  0  0  0  0
   -1.0755   -0.6303   -0.1177 C   0  0  0  0  0  0  0  0  0  0  0  0
   -0.4868   -0.7991    0.7824 H   0  0  0  0  0  0  0  0  0  0  0  0
   -0.6736   -0.7904   -1.0303 H   0  0  0  0  0  0  0  0  0  0  0  0
    1.8405   -0.0081    0.0589 Br  0  0  0  0  0 15  0  0  0  0  0  0
   -2.5703    1.0941   -0.3939 C   0  0  0  0  0  0  0  0  0  0  0  0
   -2.9613    1.1547   -1.3490 H   0  0  0  0  0  0  0  0  0  0  0  0
   -3.0648    1.9365    0.1293 H   0  0  0  0  0  0  0  0  0  0  0  0
   -3.0839   -0.1409    0.3359 C   0  0  0  0  0  0  0  0  0  0  0  0
   -4.1401   -0.3228   -0.2221 H   0  0  0  0  0  0  0  0  0  0  0  0
   -3.3425   -0.4159    1.3925 H   0  0  0  0  0  0  0  0  0  0  0  0
   -2.2222   -1.1100   -0.1062 O   0  0  0  0  0  0  0  0  0  0  0  0
  1  3  1  0  0  0  0
  2  1  1  0  0  0  0
  4 14  1  0  0  0  0
  4  1  1  0  0  0  0
  4  5  1  0  0  0  0
  6  4  1  0  0  0  0
  8  1  1  0  0  0  0
  8 10  1  0  0  0  0
  8 11  1  0  0  0  0
  9  8  1  0  0  0  0
 11 13  1  0  0  0  0
 12 11  1  0  0  0  0
 14 11  1  0  0  0  0
M  END
$$$$
Title Card Required
 OpenBabel07152211483D

 14 13  0  0  0  0  0  0  0  0999 V2000
   -1.0947    0.8754   -0.0651 C   0  0  0  0  0  0  0  0  0  0  0  0
   -0.3171    1.4386   -0.7660 H   0  0  0  0  0  0  0  0  0  0  0  0
   -0.9614    1.4460    0.8549 H   0  0  0  0  0  0  0  0  0  0  0  0
   -1.0448   -0.6194   -0.1141 C   0  0  0  0  0  0  0  0  0  0  0  0
   -0.4836   -0.8241    0.7961 H   0  0  0  0  0  0  0  0  0  0  0  0
   -0.6202   -0.8190   -1.0628 H   0  0  0  0  0  0  0  0  0  0  0  0
    1.8437   -0.0074    0.0591 Br  0  0  0  0  0 15  0  0  0  0  0  0
   -2.5816    1.1050   -0.3863 C   0  0  0  0  0  0  0  0  0  0  0  0
   -2.9109    1.1541   -1.3683 H   0  0  0  0  0  0  0  0  0  0  0  0
   -3.0451    1.9257    0.1871 H   0  0  0  0  0  0  0  0  0  0  0  0
   -3.0759   -0.1328    0.3314 C   0  0  0  0  0  0  0  0  0  0  0  0
   -4.1928   -0.3577   -0.2473 H   0  0  0  0  0  0  0  0  0  0  0  0
   -3.3418   -0.4499    1.3346 H   0  0  0  0  0  0  0  0  0  0  0  0
   -2.2470   -1.1063   -0.0989 O   0  0  0  0  0  0  0  0  0  0  0  0
  1  3  1  0  0  0  0
  2  1  1  0  0  0  0
  4 14  1  0  0  0  0
  4  1  1  0  0  0  0
  4  5  1  0  0  0  0
  6  4  1  0  0  0  0
  8  1  1  0  0  0  0
  8 10  1  0  0  0  0
  8 11  1  0  0  0  0
  9  8  1  0  0  0  0
 11 13  1  0  0  0  0
 12 11  1  0  0  0  0
 14 11  1  0  0  0  0
M  END
$$$$
Title Card Required
 OpenBabel07152211483D

 14 13  0  0  0  0  0  0  0  0999 V2000
   -1.1103    0.8544   -0.0797 C   0  0  0  0  0  0  0  0  0  0  0  0
   -0.3530    1.3925   -0.7218 H   0  0  0  0  0  0  0  0  0  0  0  0
   -0.9866    1.4563    0.8378 H   0  0  0  0  0  0  0  0  0  0  0  0
   -1.0108   -0.6070   -0.1095 C   0  0  0  0  0  0  0  0  0  0  0  0
   -0.4713   -0.8632    0.8053 H   0  0  0  0  0  0  0  0  0  0  0  0
   -0.5490   -0.8591   -1.1037 H   0  0  0  0  0  0  0  0  0  0  0  0
    1.8468   -0.0068    0.0593 Br  0  0  0  0  0 15  0  0  0  0  0  0
   -2.5916    1.1163   -0.3740 C   0  0  0  0  0  0  0  0  0  0  0  0
   -2.8714    1.1496   -1.4154 H   0  0  0  0  0  0  0  0  0  0  0  0
   -3.0219    1.9234    0.2356 H   0  0  0  0  0  0  0  0  0  0  0  0
   -3.0752   -0.1275    0.3232 C   0  0  0  0  0  0  0  0  0  0  0  0
   -4.2118   -0.3860   -0.2501 H   0  0  0  0  0  0  0  0  0  0  0  0
   -3.3398   -0.4583    1.2978 H   0  0  0  0  0  0  0  0  0  0  0  0
   -2.2736   -1.1054   -0.0925 O   0  0  0  0  0  0  0  0  0  0  0  0
  1  3  1  0  0  0  0
  2  1  1  0  0  0  0
  4 14  1  0  0  0  0
  4  1  1  0  0  0  0
  4  5  1  0  0  0  0
  6  4  1  0  0  0  0
  8  1  1  0  0  0  0
  8 10  1  0  0  0  0
  8 11  1  0  0  0  0
  9  8  1  0  0  0  0
 11 13  1  0  0  0  0
 12 11  1  0  0  0  0
 14 11  1  0  0  0  0
M  END
$$$$
Title Card Required
 OpenBabel07152211483D

 14 13  0  0  0  0  0  0  0  0999 V2000
   -1.1256    0.8387   -0.0951 C   0  0  0  0  0  0  0  0  0  0  0  0
   -0.3974    1.3386   -0.6773 H   0  0  0  0  0  0  0  0  0  0  0  0
   -1.0046    1.4533    0.8285 H   0  0  0  0  0  0  0  0  0  0  0  0
   -0.9749   -0.5955   -0.1055 C   0  0  0  0  0  0  0  0  0  0  0  0
   -0.4523   -0.9123    0.8088 H   0  0  0  0  0  0  0  0  0  0  0  0
   -0.4753   -0.9036   -1.1288 H   0  0  0  0  0  0  0  0  0  0  0  0
    1.8501   -0.0061    0.0594 Br  0  0  0  0  0 15  0  0  0  0  0  0
   -2.6011    1.1276   -0.3593 C   0  0  0  0  0  0  0  0  0  0  0  0
   -2.8379    1.1436   -1.4680 H   0  0  0  0  0  0  0  0  0  0  0  0
   -2.9965    1.9300    0.2750 H   0  0  0  0  0  0  0  0  0  0  0  0
   -3.0811   -0.1241    0.3111 C   0  0  0  0  0  0  0  0  0  0  0  0
   -4.2020   -0.4060   -0.2344 H   0  0  0  0  0  0  0  0  0  0  0  0
   -3.3405   -0.4447    1.2894 H   0  0  0  0  0  0  0  0  0  0  0  0
   -2.2998   -1.1068   -0.0872 O   0  0  0  0  0  0  0  0  0  0  0  0
  1  3  1  0  0  0  0
  2  1  1  0  0  0  0
  4  1  1  0  0  0  0
  4 14  1  0  0  0  0
  4  5  1  0  0  0  0
  6  4  1  0  0  0  0
  8  1  1  0  0  0  0
  8 10  1  0  0  0  0
  8 11  1  0  0  0  0
  9  8  1  0  0  0  0
 11 13  1  0  0  0  0
 12 11  1  0  0  0  0
 14 11  1  0  0  0  0
M  END
$$$$
Title Card Required
 OpenBabel07152211483D

 14 13  0  0  0  0  0  0  0  0999 V2000
   -1.1418    0.8276   -0.1095 C   0  0  0  0  0  0  0  0  0  0  0  0
   -0.4330    1.2902   -0.6491 H   0  0  0  0  0  0  0  0  0  0  0  0
   -1.0154    1.4344    0.8246 H   0  0  0  0  0  0  0  0  0  0  0  0
   -0.9374   -0.5867   -0.1029 C   0  0  0  0  0  0  0  0  0  0  0  0
   -0.4290   -0.9682    0.8045 H   0  0  0  0  0  0  0  0  0  0  0  0
   -0.4076   -0.9472   -1.1256 H   0  0  0  0  0  0  0  0  0  0  0  0
    1.8536   -0.0054    0.0596 Br  0  0  0  0  0 15  0  0  0  0  0  0
   -2.6105    1.1391   -0.3439 C   0  0  0  0  0  0  0  0  0  0  0  0
   -2.8076    1.1384   -1.5067 H   0  0  0  0  0  0  0  0  0  0  0  0
   -2.9696    1.9464    0.3050 H   0  0  0  0  0  0  0  0  0  0  0  0
   -3.0941   -0.1225    0.2952 C   0  0  0  0  0  0  0  0  0  0  0  0
   -4.1666   -0.4161   -0.2024 H   0  0  0  0  0  0  0  0  0  0  0  0
   -3.3444   -0.4080    1.3101 H   0  0  0  0  0  0  0  0  0  0  0  0
   -2.3247   -1.1104   -0.0831 O   0  0  0  0  0  0  0  0  0  0  0  0
  1  4  1  0  0  0  0
  1  3  1  0  0  0  0
  2  1  1  0  0  0  0
  4 14  1  0  0  0  0
  4  5  1  0  0  0  0
  6  4  1  0  0  0  0
  8  1  1  0  0  0  0
  8 11  1  0  0  0  0
  8 10  1  0  0  0  0
  9  8  1  0  0  0  0
 11 13  1  0  0  0  0
 12 11  1  0  0  0  0
 14 11  1  0  0  0  0
M  END
$$$$
Title Card Required
 OpenBabel07152211483D

 14 13  0  0  0  0  0  0  0  0999 V2000
   -1.1598    0.8204   -0.1209 C   0  0  0  0  0  0  0  0  0  0  0  0
   -0.4392    1.2641   -0.6552 H   0  0  0  0  0  0  0  0  0  0  0  0
   -1.0183    1.3992    0.8250 H   0  0  0  0  0  0  0  0  0  0  0  0
   -0.9000   -0.5822   -0.1018 C   0  0  0  0  0  0  0  0  0  0  0  0
   -0.4047   -1.0243    0.7909 H   0  0  0  0  0  0  0  0  0  0  0  0
   -0.3535   -0.9845   -1.0898 H   0  0  0  0  0  0  0  0  0  0  0  0
    1.8574   -0.0046    0.0598 Br  0  0  0  0  0 15  0  0  0  0  0  0
   -2.6196    1.1501   -0.3295 C   0  0  0  0  0  0  0  0  0  0  0  0
   -2.7821    1.1367   -1.5175 H   0  0  0  0  0  0  0  0  0  0  0  0
   -2.9429    1.9722    0.3235 H   0  0  0  0  0  0  0  0  0  0  0  0
   -3.1141   -0.1223    0.2772 C   0  0  0  0  0  0  0  0  0  0  0  0
   -4.1135   -0.4153   -0.1593 H   0  0  0  0  0  0  0  0  0  0  0  0
   -3.3488   -0.3462    1.3515 H   0  0  0  0  0  0  0  0  0  0  0  0
   -2.3467   -1.1162   -0.0805 O   0  0  0  0  0  0  0  0  0  0  0  0
  1  4  1  0  0  0  0
  1  3  1  0  0  0  0
  2  1  1  0  0  0  0
  4 14  1  0  0  0  0
  4  5  1  0  0  0  0
  6  4  1  0  0  0  0
  8  1  1  0  0  0  0
  8 11  1  0  0  0  0
  8 10  1  0  0  0  0
  9  8  1  0  0  0  0
 11 13  1  0  0  0  0
 12 11  1  0  0  0  0
 14 11  1  0  0  0  0
M  END
$$$$
Title Card Required
 OpenBabel07152211483D

 14 13  0  0  0  0  0  0  0  0999 V2000
   -1.1782    0.8171   -0.1284 C   0  0  0  0  0  0  0  0  0  0  0  0
   -0.4160    1.2635   -0.6952 H   0  0  0  0  0  0  0  0  0  0  0  0
   -1.0128    1.3517    0.8291 H   0  0  0  0  0  0  0  0  0  0  0  0
   -0.8652   -0.5828   -0.1020 C   0  0  0  0  0  0  0  0  0  0  0  0
   -0.3829   -1.0735    0.7698 H   0  0  0  0  0  0  0  0  0  0  0  0
   -0.3172   -1.0118   -1.0286 H   0  0  0  0  0  0  0  0  0  0  0  0
    1.8612   -0.0038    0.0600 Br  0  0  0  0  0 15  0  0  0  0  0  0
   -2.6279    1.1598   -0.3175 C   0  0  0  0  0  0  0  0  0  0  0  0
   -2.7641    1.1406   -1.4977 H   0  0  0  0  0  0  0  0  0  0  0  0
   -2.9184    2.0039    0.3295 H   0  0  0  0  0  0  0  0  0  0  0  0
   -3.1385   -0.1232    0.2601 C   0  0  0  0  0  0  0  0  0  0  0  0
   -4.0640   -0.4071   -0.1161 H   0  0  0  0  0  0  0  0  0  0  0  0
   -3.3497   -0.2632    1.3973 H   0  0  0  0  0  0  0  0  0  0  0  0
   -2.3644   -1.1239   -0.0794 O   0  0  0  0  0  0  0  0  0  0  0  0
  1  4  1  0  0  0  0
  1  3  1  0  0  0  0
  2  1  1  0  0  0  0
  4 14  1  0  0  0  0
  4  5  1  0  0  0  0
  6  4  1  0  0  0  0
  8  1  1  0  0  0  0
  8 11  1  0  0  0  0
  8 10  1  0  0  0  0
  9  8  1  0  0  0  0
 11 13  1  0  0  0  0
 12 11  1  0  0  0  0
 14 11  1  0  0  0  0
M  END
$$$$
Title Card Required
 OpenBabel07152211483D

 14 13  0  0  0  0  0  0  0  0999 V2000
   -1.1954    0.8175   -0.1333 C   0  0  0  0  0  0  0  0  0  0  0  0
   -0.3830    1.2773   -0.7531 H   0  0  0  0  0  0  0  0  0  0  0  0
   -0.9989    1.2952    0.8369 H   0  0  0  0  0  0  0  0  0  0  0  0
   -0.8329   -0.5881   -0.1027 C   0  0  0  0  0  0  0  0  0  0  0  0
   -0.3645   -1.1140    0.7449 H   0  0  0  0  0  0  0  0  0  0  0  0
   -0.2951   -1.0310   -0.9531 H   0  0  0  0  0  0  0  0  0  0  0  0
    1.8652   -0.0030    0.0602 Br  0  0  0  0  0 15  0  0  0  0  0  0
   -2.6358    1.1684   -0.3076 C   0  0  0  0  0  0  0  0  0  0  0  0
   -2.7547    1.1517   -1.4519 H   0  0  0  0  0  0  0  0  0  0  0  0
   -2.8958    2.0393    0.3236 H   0  0  0  0  0  0  0  0  0  0  0  0
   -3.1649   -0.1242    0.2458 C   0  0  0  0  0  0  0  0  0  0  0  0
   -4.0472   -0.4000   -0.0849 H   0  0  0  0  0  0  0  0  0  0  0  0
   -3.3455   -0.1621    1.4353 H   0  0  0  0  0  0  0  0  0  0  0  0
   -2.3786   -1.1333   -0.0797 O   0  0  0  0  0  0  0  0  0  0  0  0
  1  4  1  0  0  0  0
  1  3  1  0  0  0  0
  2  1  1  0  0  0  0
  4 14  1  0  0  0  0
  4  5  1  0  0  0  0
  6  4  1  0  0  0  0
  8  1  1  0  0  0  0
  8 11  1  0  0  0  0
  8 10  1  0  0  0  0
  9  8  1  0  0  0  0
 11 13  1  0  0  0  0
 12 11  1  0  0  0  0
 14 11  1  0  0  0  0
M  END
$$$$
Title Card Required
 OpenBabel07152211483D

 14 13  0  0  0  0  0  0  0  0999 V2000
   -1.2092    0.8218   -0.1370 C   0  0  0  0  0  0  0  0  0  0  0  0
   -0.3607    1.2947   -0.8127 H   0  0  0  0  0  0  0  0  0  0  0  0
   -0.9761    1.2330    0.8490 H   0  0  0  0  0  0  0  0  0  0  0  0
   -0.8035   -0.5973   -0.1032 C   0  0  0  0  0  0  0  0  0  0  0  0
   -0.3496   -1.1451    0.7218 H   0  0  0  0  0  0  0  0  0  0  0  0
   -0.2803   -1.0477   -0.8801 H   0  0  0  0  0  0  0  0  0  0  0  0
    1.8694   -0.0021    0.0604 Br  0  0  0  0  0 15  0  0  0  0  0  0
   -2.6436    1.1760   -0.2993 C   0  0  0  0  0  0  0  0  0  0  0  0
   -2.7556    1.1715   -1.3885 H   0  0  0  0  0  0  0  0  0  0  0  0
   -2.8753    2.0759    0.3059 H   0  0  0  0  0  0  0  0  0  0  0  0
   -3.1906   -0.1242    0.2356 C   0  0  0  0  0  0  0  0  0  0  0  0
   -4.0921   -0.4024   -0.0756 H   0  0  0  0  0  0  0  0  0  0  0  0
   -3.3356   -0.0466    1.4563 H   0  0  0  0  0  0  0  0  0  0  0  0
   -2.3899   -1.1445   -0.0811 O   0  0  0  0  0  0  0  0  0  0  0  0
  1  4  1  0  0  0  0
  1  3  1  0  0  0  0
  2  1  1  0  0  0  0
  4 14  1  0  0  0  0
  4  5  1  0  0  0  0
  6  4  1  0  0  0  0
  8  1  1  0  0  0  0
  8 11  1  0  0  0  0
  8 10  1  0  0  0  0
  9  8  1  0  0  0  0
 11 13  1  0  0  0  0
 12 11  1  0  0  0  0
 14 11  1  0  0  0  0
M  END
$$$$
Title Card Required
 OpenBabel07152211483D

 14 13  0  0  0  0  0  0  0  0999 V2000
   -1.2179    0.8296   -0.1403 C   0  0  0  0  0  0  0  0  0  0  0  0
   -0.3629    1.3091   -0.8610 H   0  0  0  0  0  0  0  0  0  0  0  0
   -0.9447    1.1700    0.8650 H   0  0  0  0  0  0  0  0  0  0  0  0
   -0.7788   -0.6090   -0.1020 C   0  0  0  0  0  0  0  0  0  0  0  0
   -0.3384   -1.1662    0.7090 H   0  0  0  0  0  0  0  0  0  0  0  0
   -0.2618   -1.0715   -0.8352 H   0  0  0  0  0  0  0  0  0  0  0  0
    1.8740   -0.0012    0.0606 Br  0  0  0  0  0 15  0  0  0  0  0  0
   -2.6512    1.1824   -0.2916 C   0  0  0  0  0  0  0  0  0  0  0  0
   -2.7694    1.2013   -1.3262 H   0  0  0  0  0  0  0  0  0  0  0  0
   -2.8578    2.1109    0.2775 H   0  0  0  0  0  0  0  0  0  0  0  0
   -3.2151   -0.1232    0.2300 C   0  0  0  0  0  0  0  0  0  0  0  0
   -4.1949   -0.4136   -0.0857 H   0  0  0  0  0  0  0  0  0  0  0  0
   -3.3211    0.0746    1.4530 H   0  0  0  0  0  0  0  0  0  0  0  0
   -2.3989   -1.1570   -0.0834 O   0  0  0  0  0  0  0  0  0  0  0  0
  1  4  1  0  0  0  0
  1  3  1  0  0  0  0
  2  1  1  0  0  0  0
  4 14  1  0  0  0  0
  4  5  1  0  0  0  0
  6  4  1  0  0  0  0
  8  1  1  0  0  0  0
  8 11  1  0  0  0  0
  8 10  1  0  0  0  0
  9  8  1  0  0  0  0
 11 13  1  0  0  0  0
 12 11  1  0  0  0  0
 14 11  1  0  0  0  0
M  END
$$$$
Title Card Required
 OpenBabel07152211483D

 14 13  0  0  0  0  0  0  0  0999 V2000
   -1.2202    0.8401   -0.1434 C   0  0  0  0  0  0  0  0  0  0  0  0
   -0.3964    1.3175   -0.8902 H   0  0  0  0  0  0  0  0  0  0  0  0
   -0.9059    1.1107    0.8825 H   0  0  0  0  0  0  0  0  0  0  0  0
   -0.7601   -0.6217   -0.0986 C   0  0  0  0  0  0  0  0  0  0  0  0
   -0.3308   -1.1776    0.7144 H   0  0  0  0  0  0  0  0  0  0  0  0
   -0.2313   -1.1109   -0.8373 H   0  0  0  0  0  0  0  0  0  0  0  0
    1.8790   -0.0001    0.0608 Br  0  0  0  0  0 15  0  0  0  0  0  0
   -2.6584    1.1877   -0.2831 C   0  0  0  0  0  0  0  0  0  0  0  0
   -2.7987    1.2423   -1.2910 H   0  0  0  0  0  0  0  0  0  0  0  0
   -2.8445    2.1420    0.2408 H   0  0  0  0  0  0  0  0  0  0  0  0
   -3.2404   -0.1216    0.2284 C   0  0  0  0  0  0  0  0  0  0  0  0
   -4.3196   -0.4238   -0.1025 H   0  0  0  0  0  0  0  0  0  0  0  0
   -3.3040    0.1922    1.4213 H   0  0  0  0  0  0  0  0  0  0  0  0
   -2.4061   -1.1705   -0.0863 O   0  0  0  0  0  0  0  0  0  0  0  0
  1  4  1  0  0  0  0
  1  3  1  0  0  0  0
  2  1  1  0  0  0  0
  4 14  1  0  0  0  0
  4  5  1  0  0  0  0
  6  4  1  0  0  0  0
  8  1  1  0  0  0  0
  8 11  1  0  0  0  0
  8 10  1  0  0  0  0
  9  8  1  0  0  0  0
 11 13  1  0  0  0  0
 12 11  1  0  0  0  0
 14 11  1  0  0  0  0
M  END
$$$$
Title Card Required
 OpenBabel07152211483D

 14 13  0  0  0  0  0  0  0  0999 V2000
   -1.2155    0.8523   -0.1461 C   0  0  0  0  0  0  0  0  0  0  0  0
   -0.4605    1.3197   -0.8962 H   0  0  0  0  0  0  0  0  0  0  0  0
   -0.8631    1.0610    0.8965 H   0  0  0  0  0  0  0  0  0  0  0  0
   -0.7478   -0.6353   -0.0941 C   0  0  0  0  0  0  0  0  0  0  0  0
   -0.3272   -1.1789    0.7414 H   0  0  0  0  0  0  0  0  0  0  0  0
   -0.1958   -1.1601   -0.8802 H   0  0  0  0  0  0  0  0  0  0  0  0
    1.8842    0.0010    0.0611 Br  0  0  0  0  0 15  0  0  0  0  0  0
   -2.6651    1.1916   -0.2734 C   0  0  0  0  0  0  0  0  0  0  0  0
   -2.8433    1.2938   -1.3000 H   0  0  0  0  0  0  0  0  0  0  0  0
   -2.8371    2.1679    0.2018 H   0  0  0  0  0  0  0  0  0  0  0  0
   -3.2680   -0.1199    0.2300 C   0  0  0  0  0  0  0  0  0  0  0  0
   -4.4265   -0.4233   -0.1136 H   0  0  0  0  0  0  0  0  0  0  0  0
   -3.2882    0.2924    1.3630 H   0  0  0  0  0  0  0  0  0  0  0  0
   -2.4121   -1.1841   -0.0894 O   0  0  0  0  0  0  0  0  0  0  0  0
  1  4  1  0  0  0  0
  1  3  1  0  0  0  0
  2  1  1  0  0  0  0
  4 14  1  0  0  0  0
  4  5  1  0  0  0  0
  6  4  1  0  0  0  0
  8  1  1  0  0  0  0
  8 10  1  0  0  0  0
  8 11  1  0  0  0  0
  9  8  1  0  0  0  0
 11 13  1  0  0  0  0
 12 11  1  0  0  0  0
 14 11  1  0  0  0  0
M  END
$$$$
Title Card Required
 OpenBabel07152211483D

 14 13  0  0  0  0  0  0  0  0999 V2000
   -1.2042    0.8650   -0.1476 C   0  0  0  0  0  0  0  0  0  0  0  0
   -0.5463    1.3202   -0.8832 H   0  0  0  0  0  0  0  0  0  0  0  0
   -0.8197    1.0253    0.9012 H   0  0  0  0  0  0  0  0  0  0  0  0
   -0.7411   -0.6506   -0.0905 C   0  0  0  0  0  0  0  0  0  0  0  0
   -0.3295   -1.1682    0.7860 H   0  0  0  0  0  0  0  0  0  0  0  0
   -0.1714   -1.2043   -0.9389 H   0  0  0  0  0  0  0  0  0  0  0  0
    1.8899    0.0022    0.0613 Br  0  0  0  0  0 15  0  0  0  0  0  0
   -2.6711    1.1941   -0.2644 C   0  0  0  0  0  0  0  0  0  0  0  0
   -2.8984    1.3533   -1.3407 H   0  0  0  0  0  0  0  0  0  0  0  0
   -2.8373    2.1890    0.1668 H   0  0  0  0  0  0  0  0  0  0  0  0
   -3.2986   -0.1182    0.2337 C   0  0  0  0  0  0  0  0  0  0  0  0
   -4.4938   -0.4078   -0.1129 H   0  0  0  0  0  0  0  0  0  0  0  0
   -3.2781    0.3648    1.2864 H   0  0  0  0  0  0  0  0  0  0  0  0
   -2.4176   -1.1975   -0.0924 O   0  0  0  0  0  0  0  0  0  0  0  0
  1  4  1  0  0  0  0
  1  3  1  0  0  0  0
  2  1  1  0  0  0  0
  4  5  1  0  0  0  0
  6  4  1  0  0  0  0
  8  1  1  0  0  0  0
  8 10  1  0  0  0  0
  8 11  1  0  0  0  0
  9  8  1  0  0  0  0
 11 13  1  0  0  0  0
 12 11  1  0  0  0  0
 14  4  1  0  0  0  0
 14 11  1  0  0  0  0
M  END
$$$$
Title Card Required
 OpenBabel07152211483D

 14 13  0  0  0  0  0  0  0  0999 V2000
   -1.1872    0.8768   -0.1460 C   0  0  0  0  0  0  0  0  0  0  0  0
   -0.6361    1.3326   -0.8688 H   0  0  0  0  0  0  0  0  0  0  0  0
   -0.7766    1.0090    0.8916 H   0  0  0  0  0  0  0  0  0  0  0  0
   -0.7394   -0.6698   -0.0896 C   0  0  0  0  0  0  0  0  0  0  0  0
   -0.3408   -1.1406    0.8412 H   0  0  0  0  0  0  0  0  0  0  0  0
   -0.1737   -1.2304   -0.9891 H   0  0  0  0  0  0  0  0  0  0  0  0
    1.8963    0.0036    0.0616 Br  0  0  0  0  0 15  0  0  0  0  0  0
   -2.6773    1.1954   -0.2597 C   0  0  0  0  0  0  0  0  0  0  0  0
   -2.9566    1.4171   -1.3857 H   0  0  0  0  0  0  0  0  0  0  0  0
   -2.8474    2.2060    0.1414 H   0  0  0  0  0  0  0  0  0  0  0  0
   -3.3336   -0.1163    0.2384 C   0  0  0  0  0  0  0  0  0  0  0  0
   -4.5086   -0.3739   -0.0960 H   0  0  0  0  0  0  0  0  0  0  0  0
   -3.2784    0.4023    1.2061 H   0  0  0  0  0  0  0  0  0  0  0  0
   -2.4234   -1.2108   -0.0950 O   0  0  0  0  0  0  0  0  0  0  0  0
  1  4  1  0  0  0  0
  1  3  1  0  0  0  0
  2  1  1  0  0  0  0
  4  5  1  0  0  0  0
  6  4  1  0  0  0  0
  8  1  1  0  0  0  0
  8 10  1  0  0  0  0
  8 11  1  0  0  0  0
  9  8  1  0  0  0  0
 11 13  1  0  0  0  0
 12 11  1  0  0  0  0
 14  4  1  0  0  0  0
 14 11  1  0  0  0  0
M  END
$$$$
Title Card Required
 OpenBabel07152211483D

 14 13  0  0  0  0  0  0  0  0999 V2000
   -1.1676    0.8842   -0.1381 C   0  0  0  0  0  0  0  0  0  0  0  0
   -0.6921    1.3809   -0.8900 H   0  0  0  0  0  0  0  0  0  0  0  0
   -0.7370    1.0221    0.8662 H   0  0  0  0  0  0  0  0  0  0  0  0
   -0.7441   -0.6929   -0.0925 C   0  0  0  0  0  0  0  0  0  0  0  0
   -0.3650   -1.0923    0.8907 H   0  0  0  0  0  0  0  0  0  0  0  0
   -0.2151   -1.2271   -1.0070 H   0  0  0  0  0  0  0  0  0  0  0  0
    1.9035    0.0051    0.0620 Br  0  0  0  0  0 15  0  0  0  0  0  0
   -2.6838    1.1962   -0.2633 C   0  0  0  0  0  0  0  0  0  0  0  0
   -3.0036    1.4737   -1.4048 H   0  0  0  0  0  0  0  0  0  0  0  0
   -2.8696    2.2148    0.1336 H   0  0  0  0  0  0  0  0  0  0  0  0
   -3.3713   -0.1145    0.2417 C   0  0  0  0  0  0  0  0  0  0  0  0
   -4.4611   -0.3224   -0.0621 H   0  0  0  0  0  0  0  0  0  0  0  0
   -3.2942    0.3982    1.1595 H   0  0  0  0  0  0  0  0  0  0  0  0
   -2.4297   -1.2229   -0.0968 O   0  0  0  0  0  0  0  0  0  0  0  0
  1  4  1  0  0  0  0
  1  3  1  0  0  0  0
  2  1  1  0  0  0  0
  4  5  1  0  0  0  0
  6  4  1  0  0  0  0
  8  1  1  0  0  0  0
  8 10  1  0  0  0  0
  8 11  1  0  0  0  0
  9  8  1  0  0  0  0
 11 13  1  0  0  0  0
 12 11  1  0  0  0  0
 14  4  1  0  0  0  0
 14 11  1  0  0  0  0
M  END
$$$$
Title Card Required
 OpenBabel07152211483D

 14 13  0  0  0  0  0  0  0  0999 V2000
   -1.1500    0.8856   -0.1268 C   0  0  0  0  0  0  0  0  0  0  0  0
   -0.7033    1.4545   -0.9437 H   0  0  0  0  0  0  0  0  0  0  0  0
   -0.7047    1.0638    0.8391 H   0  0  0  0  0  0  0  0  0  0  0  0
   -0.7548   -0.7148   -0.0976 C   0  0  0  0  0  0  0  0  0  0  0  0
   -0.3968   -1.0356    0.9162 H   0  0  0  0  0  0  0  0  0  0  0  0
   -0.2826   -1.2011   -0.9892 H   0  0  0  0  0  0  0  0  0  0  0  0
    1.9104    0.0067    0.0623 Br  0  0  0  0  0 15  0  0  0  0  0  0
   -2.6898    1.1968   -0.2745 C   0  0  0  0  0  0  0  0  0  0  0  0
   -3.0257    1.5071   -1.3872 H   0  0  0  0  0  0  0  0  0  0  0  0
   -2.8983    2.2104    0.1454 H   0  0  0  0  0  0  0  0  0  0  0  0
   -3.4025   -0.1133    0.2415 C   0  0  0  0  0  0  0  0  0  0  0  0
   -4.3891   -0.2714   -0.0275 H   0  0  0  0  0  0  0  0  0  0  0  0
   -3.3209    0.3642    1.1794 H   0  0  0  0  0  0  0  0  0  0  0  0
   -2.4358   -1.2318   -0.0975 O   0  0  0  0  0  0  0  0  0  0  0  0
  1  4  1  0  0  0  0
  1  3  1  0  0  0  0
  2  1  1  0  0  0  0
  4 14  1  0  0  0  0
  4  5  1  0  0  0  0
  6  4  1  0  0  0  0
  8  1  1  0  0  0  0
  8 10  1  0  0  0  0
  8 11  1  0  0  0  0
  9  8  1  0  0  0  0
 11 13  1  0  0  0  0
 12 11  1  0  0  0  0
 14 11  1  0  0  0  0
M  END
$$$$
Title Card Required
 OpenBabel07152211483D

 14 13  0  0  0  0  0  0  0  0999 V2000
   -1.1332    0.8838   -0.1167 C   0  0  0  0  0  0  0  0  0  0  0  0
   -0.6967    1.5246   -0.9934 H   0  0  0  0  0  0  0  0  0  0  0  0
   -0.6741    1.1297    0.8207 H   0  0  0  0  0  0  0  0  0  0  0  0
   -0.7726   -0.7339   -0.1029 C   0  0  0  0  0  0  0  0  0  0  0  0
   -0.4326   -0.9778    0.9196 H   0  0  0  0  0  0  0  0  0  0  0  0
   -0.3597   -1.1697   -0.9582 H   0  0  0  0  0  0  0  0  0  0  0  0
    1.9174    0.0082    0.0626 Br  0  0  0  0  0 15  0  0  0  0  0  0
   -2.6957    1.1975   -0.2907 C   0  0  0  0  0  0  0  0  0  0  0  0
   -3.0263    1.5187   -1.3435 H   0  0  0  0  0  0  0  0  0  0  0  0
   -2.9306    2.1915    0.1729 H   0  0  0  0  0  0  0  0  0  0  0  0
   -3.4234   -0.1111    0.2397 C   0  0  0  0  0  0  0  0  0  0  0  0
   -4.3567   -0.2342   -0.0114 H   0  0  0  0  0  0  0  0  0  0  0  0
   -3.3554    0.3066    1.2514 H   0  0  0  0  0  0  0  0  0  0  0  0
   -2.4421   -1.2382   -0.0972 O   0  0  0  0  0  0  0  0  0  0  0  0
  1  4  1  0  0  0  0
  1  3  1  0  0  0  0
  2  1  1  0  0  0  0
  4 14  1  0  0  0  0
  4  5  1  0  0  0  0
  6  4  1  0  0  0  0
  8  1  1  0  0  0  0
  8 10  1  0  0  0  0
  8 11  1  0  0  0  0
  9  8  1  0  0  0  0
 11 13  1  0  0  0  0
 12 11  1  0  0  0  0
 14 11  1  0  0  0  0
M  END
$$$$
Title Card Required
 OpenBabel07152211483D

 14 13  0  0  0  0  0  0  0  0999 V2000
   -1.1172    0.8810   -0.1109 C   0  0  0  0  0  0  0  0  0  0  0  0
   -0.6878    1.5681   -1.0136 H   0  0  0  0  0  0  0  0  0  0  0  0
   -0.6450    1.2124    0.8133 H   0  0  0  0  0  0  0  0  0  0  0  0
   -0.7985   -0.7475   -0.1053 C   0  0  0  0  0  0  0  0  0  0  0  0
   -0.4668   -0.9281    0.9081 H   0  0  0  0  0  0  0  0  0  0  0  0
   -0.4246   -1.1541   -0.9477 H   0  0  0  0  0  0  0  0  0  0  0  0
    1.9242    0.0097    0.0630 Br  0  0  0  0  0 15  0  0  0  0  0  0
   -2.7012    1.1977   -0.3083 C   0  0  0  0  0  0  0  0  0  0  0  0
   -3.0113    1.5123   -1.2922 H   0  0  0  0  0  0  0  0  0  0  0  0
   -2.9629    2.1589    0.2119 H   0  0  0  0  0  0  0  0  0  0  0  0
   -3.4300   -0.1068    0.2393 C   0  0  0  0  0  0  0  0  0  0  0  0
   -4.4086   -0.2194   -0.0274 H   0  0  0  0  0  0  0  0  0  0  0  0
   -3.3954    0.2251    1.3415 H   0  0  0  0  0  0  0  0  0  0  0  0
   -2.4487   -1.2422   -0.0963 O   0  0  0  0  0  0  0  0  0  0  0  0
  1  4  1  0  0  0  0
  1  3  1  0  0  0  0
  2  1  1  0  0  0  0
  4 14  1  0  0  0  0
  4  5  1  0  0  0  0
  6  4  1  0  0  0  0
  8  1  1  0  0  0  0
  8 10  1  0  0  0  0
  8 11  1  0  0  0  0
  9  8  1  0  0  0  0
 11 13  1  0  0  0  0
 12 11  1  0  0  0  0
 14 11  1  0  0  0  0
M  END
$$$$
Title Card Required
 OpenBabel07152211483D

 14 13  0  0  0  0  0  0  0  0999 V2000
   -1.1027    0.8788   -0.1097 C   0  0  0  0  0  0  0  0  0  0  0  0
   -0.6808    1.5778   -1.0010 H   0  0  0  0  0  0  0  0  0  0  0  0
   -0.6219    1.2989    0.8093 H   0  0  0  0  0  0  0  0  0  0  0  0
   -0.8317   -0.7540   -0.1041 C   0  0  0  0  0  0  0  0  0  0  0  0
   -0.4932   -0.8940    0.8936 H   0  0  0  0  0  0  0  0  0  0  0  0
   -0.4648   -1.1644   -0.9760 H   0  0  0  0  0  0  0  0  0  0  0  0
    1.9309    0.0111    0.0633 Br  0  0  0  0  0 15  0  0  0  0  0  0
   -2.7054    1.1967   -0.3231 C   0  0  0  0  0  0  0  0  0  0  0  0
   -2.9917    1.4974   -1.2629 H   0  0  0  0  0  0  0  0  0  0  0  0
   -2.9919    2.1160    0.2564 H   0  0  0  0  0  0  0  0  0  0  0  0
   -3.4266   -0.1010    0.2410 C   0  0  0  0  0  0  0  0  0  0  0  0
   -4.5020   -0.2216   -0.0633 H   0  0  0  0  0  0  0  0  0  0  0  0
   -3.4371    0.1265    1.4162 H   0  0  0  0  0  0  0  0  0  0  0  0
   -2.4554   -1.2439   -0.0948 O   0  0  0  0  0  0  0  0  0  0  0  0
  1  4  1  0  0  0  0
  1  3  1  0  0  0  0
  2  1  1  0  0  0  0
  4 14  1  0  0  0  0
  4  5  1  0  0  0  0
  6  4  1  0  0  0  0
  8  1  1  0  0  0  0
  8 11  1  0  0  0  0
  8 10  1  0  0  0  0
  9  8  1  0  0  0  0
 11 13  1  0  0  0  0
 12 11  1  0  0  0  0
 14 11  1  0  0  0  0
M  END
$$$$
Title Card Required
 OpenBabel07152211483D

 14 13  0  0  0  0  0  0  0  0999 V2000
   -1.0892    0.8779   -0.1118 C   0  0  0  0  0  0  0  0  0  0  0  0
   -0.6748    1.5565   -0.9631 H   0  0  0  0  0  0  0  0  0  0  0  0
   -0.6090    1.3797    0.7990 H   0  0  0  0  0  0  0  0  0  0  0  0
   -0.8717   -0.7547   -0.1012 C   0  0  0  0  0  0  0  0  0  0  0  0
   -0.5088   -0.8774    0.8854 H   0  0  0  0  0  0  0  0  0  0  0  0
   -0.4882   -1.1915   -1.0259 H   0  0  0  0  0  0  0  0  0  0  0  0
    1.9374    0.0125    0.0636 Br  0  0  0  0  0 15  0  0  0  0  0  0
   -2.7080    1.1939   -0.3323 C   0  0  0  0  0  0  0  0  0  0  0  0
   -2.9769    1.4829   -1.2768 H   0  0  0  0  0  0  0  0  0  0  0  0
   -3.0168    2.0652    0.3021 H   0  0  0  0  0  0  0  0  0  0  0  0
   -3.4188   -0.0950    0.2442 C   0  0  0  0  0  0  0  0  0  0  0  0
   -4.5810   -0.2315   -0.1023 H   0  0  0  0  0  0  0  0  0  0  0  0
   -3.4786    0.0173    1.4608 H   0  0  0  0  0  0  0  0  0  0  0  0
   -2.4622   -1.2434   -0.0930 O   0  0  0  0  0  0  0  0  0  0  0  0
  1  4  1  0  0  0  0
  1  3  1  0  0  0  0
  2  1  1  0  0  0  0
  4 14  1  0  0  0  0
  4  5  1  0  0  0  0
  6  4  1  0  0  0  0
  8  1  1  0  0  0  0
  8 11  1  0  0  0  0
  8 10  1  0  0  0  0
  9  8  1  0  0  0  0
 11 13  1  0  0  0  0
 12 11  1  0  0  0  0
 14 11  1  0  0  0  0
M  END
$$$$
Title Card Required
 OpenBabel07152211483D

 14 13  0  0  0  0  0  0  0  0999 V2000
   -1.0773    0.8783   -0.1157 C   0  0  0  0  0  0  0  0  0  0  0  0
   -0.6666    1.5111   -0.9126 H   0  0  0  0  0  0  0  0  0  0  0  0
   -0.6090    1.4463    0.7780 H   0  0  0  0  0  0  0  0  0  0  0  0
   -0.9171   -0.7512   -0.0992 C   0  0  0  0  0  0  0  0  0  0  0  0
   -0.5133   -0.8786    0.8858 H   0  0  0  0  0  0  0  0  0  0  0  0
   -0.5066   -1.2204   -1.0681 H   0  0  0  0  0  0  0  0  0  0  0  0
    1.9440    0.0139    0.0639 Br  0  0  0  0  0 15  0  0  0  0  0  0
   -2.7087    1.1892   -0.3355 C   0  0  0  0  0  0  0  0  0  0  0  0
   -2.9688    1.4708   -1.3310 H   0  0  0  0  0  0  0  0  0  0  0  0
   -3.0372    2.0103    0.3446 H   0  0  0  0  0  0  0  0  0  0  0  0
   -3.4099   -0.0901    0.2484 C   0  0  0  0  0  0  0  0  0  0  0  0
   -4.6193   -0.2440   -0.1356 H   0  0  0  0  0  0  0  0  0  0  0  0
   -3.5175   -0.0936    1.4693 H   0  0  0  0  0  0  0  0  0  0  0  0
   -2.4689   -1.2409   -0.0908 O   0  0  0  0  0  0  0  0  0  0  0  0
  1  4  1  0  0  0  0
  1  3  1  0  0  0  0
  2  1  1  0  0  0  0
  4 14  1  0  0  0  0
  4  5  1  0  0  0  0
  6  4  1  0  0  0  0
  8  1  1  0  0  0  0
  8 11  1  0  0  0  0
  8 10  1  0  0  0  0
  9  8  1  0  0  0  0
 11 13  1  0  0  0  0
 12 11  1  0  0  0  0
 14 11  1  0  0  0  0
M  END
$$$$
Title Card Required
 OpenBabel07152211483D

 14 13  0  0  0  0  0  0  0  0999 V2000
   -1.0677    0.8795   -0.1198 C   0  0  0  0  0  0  0  0  0  0  0  0
   -0.6492    1.4543   -0.8696 H   0  0  0  0  0  0  0  0  0  0  0  0
   -0.6218    1.4931    0.7471 H   0  0  0  0  0  0  0  0  0  0  0  0
   -0.9664   -0.7449   -0.0992 C   0  0  0  0  0  0  0  0  0  0  0  0
   -0.5097   -0.8960    0.8888 H   0  0  0  0  0  0  0  0  0  0  0  0
   -0.5279   -1.2405   -1.0839 H   0  0  0  0  0  0  0  0  0  0  0  0
    1.9505    0.0153    0.0643 Br  0  0  0  0  0 15  0  0  0  0  0  0
   -2.7081    1.1830   -0.3343 C   0  0  0  0  0  0  0  0  0  0  0  0
   -2.9636    1.4565   -1.4003 H   0  0  0  0  0  0  0  0  0  0  0  0
   -3.0532    1.9561    0.3808 H   0  0  0  0  0  0  0  0  0  0  0  0
   -3.4010   -0.0872    0.2530 C   0  0  0  0  0  0  0  0  0  0  0  0
   -4.6109   -0.2564   -0.1601 H   0  0  0  0  0  0  0  0  0  0  0  0
   -3.5516   -0.1976    1.4421 H   0  0  0  0  0  0  0  0  0  0  0  0
   -2.4756   -1.2364   -0.0883 O   0  0  0  0  0  0  0  0  0  0  0  0
  1  4  1  0  0  0  0
  1  3  1  0  0  0  0
  2  1  1  0  0  0  0
  4 14  1  0  0  0  0
  4  5  1  0  0  0  0
  6  4  1  0  0  0  0
  8  1  1  0  0  0  0
  8 11  1  0  0  0  0
  8 10  1  0  0  0  0
  9  8  1  0  0  0  0
 11 13  1  0  0  0  0
 12 11  1  0  0  0  0
 14 11  1  0  0  0  0
M  END
$$$$
Title Card Required
 OpenBabel07152211483D

 14 13  0  0  0  0  0  0  0  0999 V2000
   -1.0619    0.8802   -0.1224 C   0  0  0  0  0  0  0  0  0  0  0  0
   -0.6131    1.4022   -0.8579 H   0  0  0  0  0  0  0  0  0  0  0  0
   -0.6451    1.5181    0.7113 H   0  0  0  0  0  0  0  0  0  0  0  0
   -1.0181   -0.7370   -0.1006 C   0  0  0  0  0  0  0  0  0  0  0  0
   -0.5042   -0.9263    0.8848 H   0  0  0  0  0  0  0  0  0  0  0  0
   -0.5557   -1.2465   -1.0674 H   0  0  0  0  0  0  0  0  0  0  0  0
    1.9571    0.0167    0.0646 Br  0  0  0  0  0 15  0  0  0  0  0  0
   -2.7064    1.1759   -0.3308 C   0  0  0  0  0  0  0  0  0  0  0  0
   -2.9570    1.4355   -1.4569 H   0  0  0  0  0  0  0  0  0  0  0  0
   -3.0651    1.9086    0.4085 H   0  0  0  0  0  0  0  0  0  0  0  0
   -3.3926   -0.0872    0.2574 C   0  0  0  0  0  0  0  0  0  0  0  0
   -4.5578   -0.2670   -0.1757 H   0  0  0  0  0  0  0  0  0  0  0  0
   -3.5789   -0.2867    1.3861 H   0  0  0  0  0  0  0  0  0  0  0  0
   -2.4818   -1.2298   -0.0857 O   0  0  0  0  0  0  0  0  0  0  0  0
  1  4  1  0  0  0  0
  1  3  1  0  0  0  0
  2  1  1  0  0  0  0
  4 14  1  0  0  0  0
  4  5  1  0  0  0  0
  6  4  1  0  0  0  0
  8  1  1  0  0  0  0
  8 11  1  0  0  0  0
  8 10  1  0  0  0  0
  9  8  1  0  0  0  0
 11 13  1  0  0  0  0
 12 11  1  0  0  0  0
 14 11  1  0  0  0  0
M  END
$$$$
Title Card Required
 OpenBabel07152211483D

 14 13  0  0  0  0  0  0  0  0999 V2000
   -1.0608    0.8795   -0.1230 C   0  0  0  0  0  0  0  0  0  0  0  0
   -0.5567    1.3634   -0.8868 H   0  0  0  0  0  0  0  0  0  0  0  0
   -0.6736    1.5237    0.6798 H   0  0  0  0  0  0  0  0  0  0  0  0
   -1.0687   -0.7285   -0.1025 C   0  0  0  0  0  0  0  0  0  0  0  0
   -0.5028   -0.9636    0.8672 H   0  0  0  0  0  0  0  0  0  0  0  0
   -0.5890   -1.2382   -1.0244 H   0  0  0  0  0  0  0  0  0  0  0  0
    1.9634    0.0181    0.0649 Br  0  0  0  0  0 15  0  0  0  0  0  0
   -2.7038    1.1685   -0.3266 C   0  0  0  0  0  0  0  0  0  0  0  0
   -2.9483    1.4077   -1.4843 H   0  0  0  0  0  0  0  0  0  0  0  0
   -3.0735    1.8743    0.4267 H   0  0  0  0  0  0  0  0  0  0  0  0
   -3.3854   -0.0904    0.2603 C   0  0  0  0  0  0  0  0  0  0  0  0
   -4.4713   -0.2747   -0.1839 H   0  0  0  0  0  0  0  0  0  0  0  0
   -3.5985   -0.3532    1.3183 H   0  0  0  0  0  0  0  0  0  0  0  0
   -2.4874   -1.2218   -0.0831 O   0  0  0  0  0  0  0  0  0  0  0  0
  1  4  1  0  0  0  0
  1  3  1  0  0  0  0
  2  1  1  0  0  0  0
  4 14  1  0  0  0  0
  4  5  1  0  0  0  0
  6  4  1  0  0  0  0
  8  1  1  0  0  0  0
  8 11  1  0  0  0  0
  8 10  1  0  0  0  0
  9  8  1  0  0  0  0
 11 13  1  0  0  0  0
 12 11  1  0  0  0  0
 14 11  1  0  0  0  0
M  END
$$$$
Title Card Required
 OpenBabel07152211483D

 14 13  0  0  0  0  0  0  0  0999 V2000
   -1.0636    0.8779   -0.1233 C   0  0  0  0  0  0  0  0  0  0  0  0
   -0.4906    1.3305   -0.9403 H   0  0  0  0  0  0  0  0  0  0  0  0
   -0.7018    1.5167    0.6595 H   0  0  0  0  0  0  0  0  0  0  0  0
   -1.1167   -0.7202   -0.1038 C   0  0  0  0  0  0  0  0  0  0  0  0
   -0.5095   -1.0028    0.8357 H   0  0  0  0  0  0  0  0  0  0  0  0
   -0.6251   -1.2192   -0.9669 H   0  0  0  0  0  0  0  0  0  0  0  0
    1.9695    0.0194    0.0652 Br  0  0  0  0  0 15  0  0  0  0  0  0
   -2.7003    1.1611   -0.3223 C   0  0  0  0  0  0  0  0  0  0  0  0
   -2.9383    1.3748   -1.4808 H   0  0  0  0  0  0  0  0  0  0  0  0
   -3.0791    1.8551    0.4363 H   0  0  0  0  0  0  0  0  0  0  0  0
   -3.3787   -0.0964    0.2611 C   0  0  0  0  0  0  0  0  0  0  0  0
   -4.3686   -0.2803   -0.1902 H   0  0  0  0  0  0  0  0  0  0  0  0
   -3.6126   -0.3979    1.2576 H   0  0  0  0  0  0  0  0  0  0  0  0
   -2.4923   -1.2129   -0.0808 O   0  0  0  0  0  0  0  0  0  0  0  0
  1  4  1  0  0  0  0
  1  3  1  0  0  0  0
  2  1  1  0  0  0  0
  4 14  1  0  0  0  0
  4  5  1  0  0  0  0
  6  4  1  0  0  0  0
  8  1  1  0  0  0  0
  8 11  1  0  0  0  0
  8 10  1  0  0  0  0
  9  8  1  0  0  0  0
 11 13  1  0  0  0  0
 12 11  1  0  0  0  0
 14 11  1  0  0  0  0
M  END
$$$$
Title Card Required
 OpenBabel07152211483D

 14 13  0  0  0  0  0  0  0  0999 V2000
   -1.0697    0.8757   -0.1253 C   0  0  0  0  0  0  0  0  0  0  0  0
   -0.4261    1.2923   -0.9993 H   0  0  0  0  0  0  0  0  0  0  0  0
   -0.7266    1.5031    0.6547 H   0  0  0  0  0  0  0  0  0  0  0  0
   -1.1638   -0.7117   -0.1037 C   0  0  0  0  0  0  0  0  0  0  0  0
   -0.5260   -1.0424    0.7918 H   0  0  0  0  0  0  0  0  0  0  0  0
   -0.6607   -1.1944   -0.9064 H   0  0  0  0  0  0  0  0  0  0  0  0
    1.9756    0.0207    0.0655 Br  0  0  0  0  0 15  0  0  0  0  0  0
   -2.6959    1.1532   -0.3178 C   0  0  0  0  0  0  0  0  0  0  0  0
   -2.9278    1.3373   -1.4496 H   0  0  0  0  0  0  0  0  0  0  0  0
   -3.0824    1.8502    0.4379 H   0  0  0  0  0  0  0  0  0  0  0  0
   -3.3710   -0.1046    0.2594 C   0  0  0  0  0  0  0  0  0  0  0  0
   -4.2666   -0.2864   -0.2035 H   0  0  0  0  0  0  0  0  0  0  0  0
   -3.6248   -0.4255    1.2180 H   0  0  0  0  0  0  0  0  0  0  0  0
   -2.4969   -1.2029   -0.0788 O   0  0  0  0  0  0  0  0  0  0  0  0
  1  4  1  0  0  0  0
  1  3  1  0  0  0  0
  2  1  1  0  0  0  0
  4 14  1  0  0  0  0
  4  5  1  0  0  0  0
  6  4  1  0  0  0  0
  8  1  1  0  0  0  0
  8 11  1  0  0  0  0
  8 10  1  0  0  0  0
  9  8  1  0  0  0  0
 11 13  1  0  0  0  0
 12 11  1  0  0  0  0
 14 11  1  0  0  0  0
M  END
$$$$
Title Card Required
 OpenBabel07152211483D

 14 13  0  0  0  0  0  0  0  0999 V2000
   -1.0788    0.8729   -0.1307 C   0  0  0  0  0  0  0  0  0  0  0  0
   -0.3725    1.2419   -1.0494 H   0  0  0  0  0  0  0  0  0  0  0  0
   -0.7456    1.4859    0.6690 H   0  0  0  0  0  0  0  0  0  0  0  0
   -1.2113   -0.7024   -0.1011 C   0  0  0  0  0  0  0  0  0  0  0  0
   -0.5543   -1.0814    0.7383 H   0  0  0  0  0  0  0  0  0  0  0  0
   -0.6903   -1.1694   -0.8570 H   0  0  0  0  0  0  0  0  0  0  0  0
    1.9820    0.0220    0.0658 Br  0  0  0  0  0 15  0  0  0  0  0  0
   -2.6903    1.1449   -0.3124 C   0  0  0  0  0  0  0  0  0  0  0  0
   -2.9183    1.2957   -1.3943 H   0  0  0  0  0  0  0  0  0  0  0  0
   -3.0830    1.8597    0.4304 H   0  0  0  0  0  0  0  0  0  0  0  0
   -3.3600   -0.1148    0.2554 C   0  0  0  0  0  0  0  0  0  0  0  0
   -4.1900   -0.2976   -0.2393 H   0  0  0  0  0  0  0  0  0  0  0  0
   -3.6387   -0.4380    1.2108 H   0  0  0  0  0  0  0  0  0  0  0  0
   -2.5016   -1.1919   -0.0770 O   0  0  0  0  0  0  0  0  0  0  0  0
  1  4  1  0  0  0  0
  1  3  1  0  0  0  0
  2  1  1  0  0  0  0
  4 14  1  0  0  0  0
  4  5  1  0  0  0  0
  6  4  1  0  0  0  0
  8  1  1  0  0  0  0
  8 11  1  0  0  0  0
  8 10  1  0  0  0  0
  9  8  1  0  0  0  0
 11 13  1  0  0  0  0
 12 11  1  0  0  0  0
 14 11  1  0  0  0  0
M  END
$$$$
Title Card Required
 OpenBabel07152211483D

 14 13  0  0  0  0  0  0  0  0999 V2000
   -1.0902    0.8697   -0.1399 C   0  0  0  0  0  0  0  0  0  0  0  0
   -0.3400    1.1795   -1.0779 H   0  0  0  0  0  0  0  0  0  0  0  0
   -0.7570    1.4651    0.7005 H   0  0  0  0  0  0  0  0  0  0  0  0
   -1.2571   -0.6922   -0.0954 C   0  0  0  0  0  0  0  0  0  0  0  0
   -0.5926   -1.1171    0.6843 H   0  0  0  0  0  0  0  0  0  0  0  0
   -0.7062   -1.1514   -0.8360 H   0  0  0  0  0  0  0  0  0  0  0  0
    1.9886    0.0234    0.0661 Br  0  0  0  0  0 15  0  0  0  0  0  0
   -2.6834    1.1363   -0.3052 C   0  0  0  0  0  0  0  0  0  0  0  0
   -2.9132    1.2539   -1.3296 H   0  0  0  0  0  0  0  0  0  0  0  0
   -3.0801    1.8824    0.4123 H   0  0  0  0  0  0  0  0  0  0  0  0
   -3.3449   -0.1262    0.2502 C   0  0  0  0  0  0  0  0  0  0  0  0
   -4.1635   -0.3168   -0.3087 H   0  0  0  0  0  0  0  0  0  0  0  0
   -3.6556   -0.4332    1.2372 H   0  0  0  0  0  0  0  0  0  0  0  0
   -2.5066   -1.1804   -0.0758 O   0  0  0  0  0  0  0  0  0  0  0  0
  1  4  1  0  0  0  0
  1  3  1  0  0  0  0
  2  1  1  0  0  0  0
  4 14  1  0  0  0  0
  4  5  1  0  0  0  0
  6  4  1  0  0  0  0
  8  1  1  0  0  0  0
  8 11  1  0  0  0  0
  8 10  1  0  0  0  0
  9  8  1  0  0  0  0
 11 13  1  0  0  0  0
 12 11  1  0  0  0  0
 14 11  1  0  0  0  0
M  END
$$$$
Title Card Required
 OpenBabel07152211483D

 14 13  0  0  0  0  0  0  0  0999 V2000
   -1.1032    0.8663   -0.1521 C   0  0  0  0  0  0  0  0  0  0  0  0
   -0.3335    1.1100   -1.0789 H   0  0  0  0  0  0  0  0  0  0  0  0
   -0.7621    1.4378    0.7395 H   0  0  0  0  0  0  0  0  0  0  0  0
   -1.2982   -0.6815   -0.0875 C   0  0  0  0  0  0  0  0  0  0  0  0
   -0.6357   -1.1479    0.6410 H   0  0  0  0  0  0  0  0  0  0  0  0
   -0.7083   -1.1409   -0.8473 H   0  0  0  0  0  0  0  0  0  0  0  0
    1.9951    0.0247    0.0664 Br  0  0  0  0  0 15  0  0  0  0  0  0
   -2.6752    1.1279   -0.2949 C   0  0  0  0  0  0  0  0  0  0  0  0
   -2.9172    1.2168   -1.2798 H   0  0  0  0  0  0  0  0  0  0  0  0
   -3.0731    1.9142    0.3834 H   0  0  0  0  0  0  0  0  0  0  0  0
   -3.3283   -0.1384    0.2448 C   0  0  0  0  0  0  0  0  0  0  0  0
   -4.1784   -0.3397   -0.4004 H   0  0  0  0  0  0  0  0  0  0  0  0
   -3.6734   -0.4090    1.2822 H   0  0  0  0  0  0  0  0  0  0  0  0
   -2.5123   -1.1695   -0.0750 O   0  0  0  0  0  0  0  0  0  0  0  0
  1  4  1  0  0  0  0
  1  3  1  0  0  0  0
  2  1  1  0  0  0  0
  4 14  1  0  0  0  0
  4  5  1  0  0  0  0
  6  4  1  0  0  0  0
  8  1  1  0  0  0  0
  8 11  1  0  0  0  0
  8 10  1  0  0  0  0
  9  8  1  0  0  0  0
 11 13  1  0  0  0  0
 12 11  1  0  0  0  0
 14 11  1  0  0  0  0
M  END
$$$$
Title Card Required
 OpenBabel07152211483D

 14 13  0  0  0  0  0  0  0  0999 V2000
   -1.1176    0.8627   -0.1663 C   0  0  0  0  0  0  0  0  0  0  0  0
   -0.3532    1.0358   -1.0524 H   0  0  0  0  0  0  0  0  0  0  0  0
   -0.7638    1.3989    0.7759 H   0  0  0  0  0  0  0  0  0  0  0  0
   -1.3331   -0.6705   -0.0788 C   0  0  0  0  0  0  0  0  0  0  0  0
   -0.6799   -1.1750    0.6155 H   0  0  0  0  0  0  0  0  0  0  0  0
   -0.7060   -1.1315   -0.8823 H   0  0  0  0  0  0  0  0  0  0  0  0
    2.0019    0.0261    0.0667 Br  0  0  0  0  0 15  0  0  0  0  0  0
   -2.6655    1.1200   -0.2801 C   0  0  0  0  0  0  0  0  0  0  0  0
   -2.9345    1.1858   -1.2635 H   0  0  0  0  0  0  0  0  0  0  0  0
   -3.0616    1.9519    0.3436 H   0  0  0  0  0  0  0  0  0  0  0  0
   -3.3137   -0.1518    0.2388 C   0  0  0  0  0  0  0  0  0  0  0  0
   -4.2092   -0.3594   -0.4935 H   0  0  0  0  0  0  0  0  0  0  0  0
   -3.6892   -0.3636    1.3286 H   0  0  0  0  0  0  0  0  0  0  0  0
   -2.5196   -1.1596   -0.0749 O   0  0  0  0  0  0  0  0  0  0  0  0
  1  4  1  0  0  0  0
  1  3  1  0  0  0  0
  2  1  1  0  0  0  0
  4 14  1  0  0  0  0
  4  5  1  0  0  0  0
  6  4  1  0  0  0  0
  8  1  1  0  0  0  0
  8 11  1  0  0  0  0
  8 10  1  0  0  0  0
  9  8  1  0  0  0  0
 11 13  1  0  0  0  0
 12 11  1  0  0  0  0
 14 11  1  0  0  0  0
M  END
$$$$
Title Card Required
 OpenBabel07152211483D

 14 13  0  0  0  0  0  0  0  0999 V2000
   -1.1337    0.8589   -0.1810 C   0  0  0  0  0  0  0  0  0  0  0  0
   -0.3964    0.9611   -1.0026 H   0  0  0  0  0  0  0  0  0  0  0  0
   -0.7644    1.3444    0.8004 H   0  0  0  0  0  0  0  0  0  0  0  0
   -1.3593   -0.6598   -0.0708 C   0  0  0  0  0  0  0  0  0  0  0  0
   -0.7215   -1.1990    0.6129 H   0  0  0  0  0  0  0  0  0  0  0  0
   -0.7104   -1.1159   -0.9287 H   0  0  0  0  0  0  0  0  0  0  0  0
    2.0090    0.0275    0.0671 Br  0  0  0  0  0 15  0  0  0  0  0  0
   -2.6543    1.1127   -0.2610 C   0  0  0  0  0  0  0  0  0  0  0  0
   -2.9651    1.1609   -1.2827 H   0  0  0  0  0  0  0  0  0  0  0  0
   -3.0451    1.9933    0.2931 H   0  0  0  0  0  0  0  0  0  0  0  0
   -3.3044   -0.1661    0.2322 C   0  0  0  0  0  0  0  0  0  0  0  0
   -4.2373   -0.3702   -0.5691 H   0  0  0  0  0  0  0  0  0  0  0  0
   -3.6998   -0.2966    1.3621 H   0  0  0  0  0  0  0  0  0  0  0  0
   -2.5296   -1.1516   -0.0753 O   0  0  0  0  0  0  0  0  0  0  0  0
  1  4  1  0  0  0  0
  1  3  1  0  0  0  0
  2  1  1  0  0  0  0
  4  5  1  0  0  0  0
  6  4  1  0  0  0  0
  8  1  1  0  0  0  0
  8 11  1  0  0  0  0
  8 10  1  0  0  0  0
  9  8  1  0  0  0  0
 11 13  1  0  0  0  0
 12 11  1  0  0  0  0
 14  4  1  0  0  0  0
 14 11  1  0  0  0  0
M  END
$$$$
Title Card Required
 OpenBabel07152211483D

 14 13  0  0  0  0  0  0  0  0999 V2000
   -1.1531    0.8540   -0.1937 C   0  0  0  0  0  0  0  0  0  0  0  0
   -0.4515    0.8928   -0.9453 H   0  0  0  0  0  0  0  0  0  0  0  0
   -0.7655    1.2714    0.8042 H   0  0  0  0  0  0  0  0  0  0  0  0
   -1.3733   -0.6503   -0.0649 C   0  0  0  0  0  0  0  0  0  0  0  0
   -0.7587   -1.2178    0.6358 H   0  0  0  0  0  0  0  0  0  0  0  0
   -0.7322   -1.0886   -0.9748 H   0  0  0  0  0  0  0  0  0  0  0  0
    2.0168    0.0291    0.0674 Br  0  0  0  0  0 15  0  0  0  0  0  0
   -2.6422    1.1069   -0.2397 C   0  0  0  0  0  0  0  0  0  0  0  0
   -3.0027    1.1413   -1.3190 H   0  0  0  0  0  0  0  0  0  0  0  0
   -3.0232    2.0360    0.2327 H   0  0  0  0  0  0  0  0  0  0  0  0
   -3.3040   -0.1800    0.2250 C   0  0  0  0  0  0  0  0  0  0  0  0
   -4.2526   -0.3683   -0.6117 H   0  0  0  0  0  0  0  0  0  0  0  0
   -3.7019   -0.2092    1.3699 H   0  0  0  0  0  0  0  0  0  0  0  0
   -2.5431   -1.1466   -0.0766 O   0  0  0  0  0  0  0  0  0  0  0  0
  1  4  1  0  0  0  0
  1  3  1  0  0  0  0
  2  1  1  0  0  0  0
  4  5  1  0  0  0  0
  6  4  1  0  0  0  0
  8  1  1  0  0  0  0
  8 11  1  0  0  0  0
  8 10  1  0  0  0  0
  9  8  1  0  0  0  0
 11 13  1  0  0  0  0
 12 11  1  0  0  0  0
 14  4  1  0  0  0  0
 14 11  1  0  0  0  0
M  END
$$$$
Title Card Required
 OpenBabel07152211483D

 14 13  0  0  0  0  0  0  0  0999 V2000
   -1.1778    0.8472   -0.1999 C   0  0  0  0  0  0  0  0  0  0  0  0
   -0.4862    0.8427   -0.9189 H   0  0  0  0  0  0  0  0  0  0  0  0
   -0.7666    1.1838    0.7829 H   0  0  0  0  0  0  0  0  0  0  0  0
   -1.3711   -0.6439   -0.0622 C   0  0  0  0  0  0  0  0  0  0  0  0
   -0.7900   -1.2249    0.6818 H   0  0  0  0  0  0  0  0  0  0  0  0
   -0.7781   -1.0482   -1.0069 H   0  0  0  0  0  0  0  0  0  0  0  0
    2.0253    0.0308    0.0677 Br  0  0  0  0  0 15  0  0  0  0  0  0
   -2.6312    1.1035   -0.2203 C   0  0  0  0  0  0  0  0  0  0  0  0
   -3.0337    1.1279   -1.3429 H   0  0  0  0  0  0  0  0  0  0  0  0
   -2.9961    2.0761    0.1673 H   0  0  0  0  0  0  0  0  0  0  0  0
   -3.3167   -0.1906    0.2178 C   0  0  0  0  0  0  0  0  0  0  0  0
   -4.2490   -0.3508   -0.6058 H   0  0  0  0  0  0  0  0  0  0  0  0
   -3.6932   -0.1094    1.3424 H   0  0  0  0  0  0  0  0  0  0  0  0
   -2.5602   -1.1465   -0.0791 O   0  0  0  0  0  0  0  0  0  0  0  0
  1  4  1  0  0  0  0
  1  3  1  0  0  0  0
  2  1  1  0  0  0  0
  4  5  1  0  0  0  0
  6  4  1  0  0  0  0
  8  1  1  0  0  0  0
  8 10  1  0  0  0  0
  8 11  1  0  0  0  0
  9  8  1  0  0  0  0
 11 13  1  0  0  0  0
 12 11  1  0  0  0  0
 14  4  1  0  0  0  0
 14 11  1  0  0  0  0
M  END
$$$$
Title Card Required
 OpenBabel07152211483D

 14 13  0  0  0  0  0  0  0  0999 V2000
   -1.2044    0.8388   -0.1976 C   0  0  0  0  0  0  0  0  0  0  0  0
   -0.4790    0.8221   -0.9462 H   0  0  0  0  0  0  0  0  0  0  0  0
   -0.7641    1.1042    0.7496 H   0  0  0  0  0  0  0  0  0  0  0  0
   -1.3548   -0.6431   -0.0629 C   0  0  0  0  0  0  0  0  0  0  0  0
   -0.8126   -1.2146    0.7338 H   0  0  0  0  0  0  0  0  0  0  0  0
   -0.8373   -1.0063   -1.0151 H   0  0  0  0  0  0  0  0  0  0  0  0
    2.0333    0.0323    0.0681 Br  0  0  0  0  0 15  0  0  0  0  0  0
   -2.6247    1.1034   -0.2082 C   0  0  0  0  0  0  0  0  0  0  0  0
   -3.0446    1.1223   -1.3359 H   0  0  0  0  0  0  0  0  0  0  0  0
   -2.9694    2.1057    0.1117 H   0  0  0  0  0  0  0  0  0  0  0  0
   -3.3409   -0.1941    0.2119 C   0  0  0  0  0  0  0  0  0  0  0  0
   -4.2302   -0.3217   -0.5531 H   0  0  0  0  0  0  0  0  0  0  0  0
   -3.6785   -0.0221    1.2902 H   0  0  0  0  0  0  0  0  0  0  0  0
   -2.5772   -1.1517   -0.0823 O   0  0  0  0  0  0  0  0  0  0  0  0
  1  4  1  0  0  0  0
  1  3  1  0  0  0  0
  2  1  1  0  0  0  0
  4  5  1  0  0  0  0
  6  4  1  0  0  0  0
  8  1  1  0  0  0  0
  8 10  1  0  0  0  0
  8 11  1  0  0  0  0
  9  8  1  0  0  0  0
 11 13  1  0  0  0  0
 12 11  1  0  0  0  0
 14  4  1  0  0  0  0
 14 11  1  0  0  0  0
M  END
$$$$
Title Card Required
 OpenBabel07152211483D

 14 13  0  0  0  0  0  0  0  0999 V2000
   -1.2289    0.8293   -0.1913 C   0  0  0  0  0  0  0  0  0  0  0  0
   -0.4566    0.8268   -0.9960 H   0  0  0  0  0  0  0  0  0  0  0  0
   -0.7534    1.0440    0.7234 H   0  0  0  0  0  0  0  0  0  0  0  0
   -1.3313   -0.6473   -0.0656 C   0  0  0  0  0  0  0  0  0  0  0  0
   -0.8276   -1.1897    0.7801 H   0  0  0  0  0  0  0  0  0  0  0  0
   -0.8947   -0.9731   -1.0082 H   0  0  0  0  0  0  0  0  0  0  0  0
    2.0406    0.0337    0.0684 Br  0  0  0  0  0 15  0  0  0  0  0  0
   -2.6231    1.1059   -0.2031 C   0  0  0  0  0  0  0  0  0  0  0  0
   -3.0363    1.1229   -1.3055 H   0  0  0  0  0  0  0  0  0  0  0  0
   -2.9460    2.1256    0.0703 H   0  0  0  0  0  0  0  0  0  0  0  0
   -3.3711   -0.1910    0.2071 C   0  0  0  0  0  0  0  0  0  0  0  0
   -4.2101   -0.2873   -0.4759 H   0  0  0  0  0  0  0  0  0  0  0  0
   -3.6649    0.0451    1.2355 H   0  0  0  0  0  0  0  0  0  0  0  0
   -2.5924   -1.1603   -0.0860 O   0  0  0  0  0  0  0  0  0  0  0  0
  1  4  1  0  0  0  0
  1  3  1  0  0  0  0
  2  1  1  0  0  0  0
  4  5  1  0  0  0  0
  6  4  1  0  0  0  0
  8  1  1  0  0  0  0
  8 10  1  0  0  0  0
  8 11  1  0  0  0  0
  9  8  1  0  0  0  0
 11 13  1  0  0  0  0
 12 11  1  0  0  0  0
 14  4  1  0  0  0  0
 14 11  1  0  0  0  0
M  END
$$$$
Title Card Required
 OpenBabel07152211483D

 14 13  0  0  0  0  0  0  0  0999 V2000
   -1.2504    0.8179   -0.1844 C   0  0  0  0  0  0  0  0  0  0  0  0
   -0.4433    0.8521   -1.0424 H   0  0  0  0  0  0  0  0  0  0  0  0
   -0.7307    1.0029    0.7123 H   0  0  0  0  0  0  0  0  0  0  0  0
   -1.3037   -0.6561   -0.0688 C   0  0  0  0  0  0  0  0  0  0  0  0
   -0.8364   -1.1523    0.8191 H   0  0  0  0  0  0  0  0  0  0  0  0
   -0.9421   -0.9544   -1.0003 H   0  0  0  0  0  0  0  0  0  0  0  0
    2.0477    0.0351    0.0686 Br  0  0  0  0  0 15  0  0  0  0  0  0
   -2.6263    1.1107   -0.2034 C   0  0  0  0  0  0  0  0  0  0  0  0
   -3.0125    1.1280   -1.2614 H   0  0  0  0  0  0  0  0  0  0  0  0
   -2.9253    2.1400    0.0414 H   0  0  0  0  0  0  0  0  0  0  0  0
   -3.4050   -0.1824    0.2033 C   0  0  0  0  0  0  0  0  0  0  0  0
   -4.2087   -0.2496   -0.3940 H   0  0  0  0  0  0  0  0  0  0  0  0
   -3.6568    0.0974    1.1937 H   0  0  0  0  0  0  0  0  0  0  0  0
   -2.6066   -1.1715   -0.0900 O   0  0  0  0  0  0  0  0  0  0  0  0
  1  4  1  0  0  0  0
  1  3  1  0  0  0  0
  2  1  1  0  0  0  0
  4  5  1  0  0  0  0
  6  4  1  0  0  0  0
  8  1  1  0  0  0  0
  8 10  1  0  0  0  0
  8 11  1  0  0  0  0
  9  8  1  0  0  0  0
 11 13  1  0  0  0  0
 12 11  1  0  0  0  0
 14  4  1  0  0  0  0
 14 11  1  0  0  0  0
M  END
$$$$
Title Card Required
 OpenBabel07152211483D

 14 13  0  0  0  0  0  0  0  0999 V2000
   -1.2677    0.8043   -0.1778 C   0  0  0  0  0  0  0  0  0  0  0  0
   -0.4536    0.8967   -1.0713 H   0  0  0  0  0  0  0  0  0  0  0  0
   -0.6955    0.9824    0.7173 H   0  0  0  0  0  0  0  0  0  0  0  0
   -1.2738   -0.6691   -0.0712 C   0  0  0  0  0  0  0  0  0  0  0  0
   -0.8375   -1.1046    0.8493 H   0  0  0  0  0  0  0  0  0  0  0  0
   -0.9691   -0.9586   -1.0080 H   0  0  0  0  0  0  0  0  0  0  0  0
    2.0551    0.0365    0.0689 Br  0  0  0  0  0 15  0  0  0  0  0  0
   -2.6345    1.1179   -0.2082 C   0  0  0  0  0  0  0  0  0  0  0  0
   -2.9769    1.1373   -1.2170 H   0  0  0  0  0  0  0  0  0  0  0  0
   -2.9079    2.1518    0.0267 H   0  0  0  0  0  0  0  0  0  0  0  0
   -3.4392   -0.1686    0.2014 C   0  0  0  0  0  0  0  0  0  0  0  0
   -4.2589   -0.2117   -0.3334 H   0  0  0  0  0  0  0  0  0  0  0  0
   -3.6578    0.1375    1.1810 H   0  0  0  0  0  0  0  0  0  0  0  0
   -2.6207   -1.1849   -0.0942 O   0  0  0  0  0  0  0  0  0  0  0  0
  1  4  1  0  0  0  0
  1  3  1  0  0  0  0
  2  1  1  0  0  0  0
  4  5  1  0  0  0  0
  6  4  1  0  0  0  0
  8  1  1  0  0  0  0
  8 10  1  0  0  0  0
  8 11  1  0  0  0  0
  9  8  1  0  0  0  0
 11 13  1  0  0  0  0
 12 11  1  0  0  0  0
 14  4  1  0  0  0  0
 14 11  1  0  0  0  0
M  END
$$$$
Title Card Required
 OpenBabel07152211483D

 14 13  0  0  0  0  0  0  0  0999 V2000
   -1.2782    0.7901   -0.1722 C   0  0  0  0  0  0  0  0  0  0  0  0
   -0.4910    0.9522   -1.0742 H   0  0  0  0  0  0  0  0  0  0  0  0
   -0.6578    0.9829    0.7288 H   0  0  0  0  0  0  0  0  0  0  0  0
   -1.2464   -0.6845   -0.0722 C   0  0  0  0  0  0  0  0  0  0  0  0
   -0.8294   -1.0563    0.8683 H   0  0  0  0  0  0  0  0  0  0  0  0
   -0.9684   -0.9884   -1.0369 H   0  0  0  0  0  0  0  0  0  0  0  0
    2.0622    0.0379    0.0692 Br  0  0  0  0  0 15  0  0  0  0  0  0
   -2.6466    1.1264   -0.2155 C   0  0  0  0  0  0  0  0  0  0  0  0
   -2.9402    1.1496   -1.1981 H   0  0  0  0  0  0  0  0  0  0  0  0
   -2.8961    2.1620    0.0283 H   0  0  0  0  0  0  0  0  0  0  0  0
   -3.4683   -0.1516    0.2017 C   0  0  0  0  0  0  0  0  0  0  0  0
   -4.3669   -0.1791   -0.3096 H   0  0  0  0  0  0  0  0  0  0  0  0
   -3.6677    0.1624    1.2038 H   0  0  0  0  0  0  0  0  0  0  0  0
   -2.6337   -1.1984   -0.0979 O   0  0  0  0  0  0  0  0  0  0  0  0
  1  4  1  0  0  0  0
  1  3  1  0  0  0  0
  2  1  1  0  0  0  0
  4  5  1  0  0  0  0
  6  4  1  0  0  0  0
  8  1  1  0  0  0  0
  8 10  1  0  0  0  0
  8 11  1  0  0  0  0
  9  8  1  0  0  0  0
 11 13  1  0  0  0  0
 12 11  1  0  0  0  0
 14  4  1  0  0  0  0
 14 11  1  0  0  0  0
M  END
$$$$
Title Card Required
 OpenBabel07152211483D

 14 13  0  0  0  0  0  0  0  0999 V2000
   -1.2819    0.7765   -0.1668 C   0  0  0  0  0  0  0  0  0  0  0  0
   -0.5486    1.0104   -1.0553 H   0  0  0  0  0  0  0  0  0  0  0  0
   -0.6272    0.9985    0.7363 H   0  0  0  0  0  0  0  0  0  0  0  0
   -1.2232   -0.7007   -0.0729 C   0  0  0  0  0  0  0  0  0  0  0  0
   -0.8126   -1.0152    0.8791 H   0  0  0  0  0  0  0  0  0  0  0  0
   -0.9467   -1.0349   -1.0730 H   0  0  0  0  0  0  0  0  0  0  0  0
    2.0688    0.0392    0.0694 Br  0  0  0  0  0 15  0  0  0  0  0  0
   -2.6608    1.1352   -0.2229 C   0  0  0  0  0  0  0  0  0  0  0  0
   -2.9101    1.1641   -1.2175 H   0  0  0  0  0  0  0  0  0  0  0  0
   -2.8901    2.1711    0.0435 H   0  0  0  0  0  0  0  0  0  0  0  0
   -3.4928   -0.1334    0.2031 C   0  0  0  0  0  0  0  0  0  0  0  0
   -4.4935   -0.1528   -0.3040 H   0  0  0  0  0  0  0  0  0  0  0  0
   -3.6820    0.1718    1.2478 H   0  0  0  0  0  0  0  0  0  0  0  0
   -2.6458   -1.2105   -0.1010 O   0  0  0  0  0  0  0  0  0  0  0  0
  1  4  1  0  0  0  0
  1  3  1  0  0  0  0
  2  1  1  0  0  0  0
  4  5  1  0  0  0  0
  6  4  1  0  0  0  0
  8  1  1  0  0  0  0
  8 10  1  0  0  0  0
  8 11  1  0  0  0  0
  9  8  1  0  0  0  0
 11 13  1  0  0  0  0
 12 11  1  0  0  0  0
 14  4  1  0  0  0  0
 14 11  1  0  0  0  0
M  END
$$$$
Title Card Required
 OpenBabel07152211483D

 14 13  0  0  0  0  0  0  0  0999 V2000
   -1.2806    0.7636   -0.1611 C   0  0  0  0  0  0  0  0  0  0  0  0
   -0.6195    1.0689   -1.0220 H   0  0  0  0  0  0  0  0  0  0  0  0
   -0.6077    1.0238    0.7352 H   0  0  0  0  0  0  0  0  0  0  0  0
   -1.2035   -0.7177   -0.0747 C   0  0  0  0  0  0  0  0  0  0  0  0
   -0.7878   -0.9835    0.8859 H   0  0  0  0  0  0  0  0  0  0  0  0
   -0.9118   -1.0904   -1.1012 H   0  0  0  0  0  0  0  0  0  0  0  0
    2.0751    0.0404    0.0697 Br  0  0  0  0  0 15  0  0  0  0  0  0
   -2.6765    1.1440   -0.2303 C   0  0  0  0  0  0  0  0  0  0  0  0
   -2.8862    1.1809   -1.2691 H   0  0  0  0  0  0  0  0  0  0  0  0
   -2.8888    2.1789    0.0691 H   0  0  0  0  0  0  0  0  0  0  0  0
   -3.5156   -0.1143    0.2049 C   0  0  0  0  0  0  0  0  0  0  0  0
   -4.6082   -0.1313   -0.2983 H   0  0  0  0  0  0  0  0  0  0  0  0
   -3.6977    0.1664    1.2976 H   0  0  0  0  0  0  0  0  0  0  0  0
   -2.6575   -1.2213   -0.1035 O   0  0  0  0  0  0  0  0  0  0  0  0
  1  4  1  0  0  0  0
  1  3  1  0  0  0  0
  2  1  1  0  0  0  0
  4  5  1  0  0  0  0
  6  4  1  0  0  0  0
  8  1  1  0  0  0  0
  8 10  1  0  0  0  0
  8 11  1  0  0  0  0
  9  8  1  0  0  0  0
 11 13  1  0  0  0  0
 12 11  1  0  0  0  0
 14  4  1  0  0  0  0
 14 11  1  0  0  0  0
M  END
$$$$
Title Card Required
 OpenBabel07152211483D

 14 13  0  0  0  0  0  0  0  0999 V2000
   -1.2755    0.7513   -0.1543 C   0  0  0  0  0  0  0  0  0  0  0  0
   -0.6969    1.1281   -0.9825 H   0  0  0  0  0  0  0  0  0  0  0  0
   -0.6005    1.0557    0.7248 H   0  0  0  0  0  0  0  0  0  0  0  0
   -1.1865   -0.7359   -0.0784 C   0  0  0  0  0  0  0  0  0  0  0  0
   -0.7554   -0.9620    0.8904 H   0  0  0  0  0  0  0  0  0  0  0  0
   -0.8682   -1.1501   -1.1121 H   0  0  0  0  0  0  0  0  0  0  0  0
    2.0813    0.0416    0.0699 Br  0  0  0  0  0 15  0  0  0  0  0  0
   -2.6938    1.1527   -0.2385 C   0  0  0  0  0  0  0  0  0  0  0  0
   -2.8656    1.2003   -1.3373 H   0  0  0  0  0  0  0  0  0  0  0  0
   -2.8917    2.1840    0.1027 H   0  0  0  0  0  0  0  0  0  0  0  0
   -3.5385   -0.0940    0.2072 C   0  0  0  0  0  0  0  0  0  0  0  0
   -4.6981   -0.1134   -0.2849 H   0  0  0  0  0  0  0  0  0  0  0  0
   -3.7131    0.1467    1.3427 H   0  0  0  0  0  0  0  0  0  0  0  0
   -2.6694   -1.2309   -0.1054 O   0  0  0  0  0  0  0  0  0  0  0  0
  1  4  1  0  0  0  0
  1  3  1  0  0  0  0
  2  1  1  0  0  0  0
  4  5  1  0  0  0  0
  6  4  1  0  0  0  0
  8  1  1  0  0  0  0
  8 10  1  0  0  0  0
  8 11  1  0  0  0  0
  9  8  1  0  0  0  0
 11 13  1  0  0  0  0
 12 11  1  0  0  0  0
 14  4  1  0  0  0  0
 14 11  1  0  0  0  0
M  END
$$$$
Title Card Required
 OpenBabel07152211483D

 14 13  0  0  0  0  0  0  0  0999 V2000
   -1.2680    0.7394   -0.1456 C   0  0  0  0  0  0  0  0  0  0  0  0
   -0.7727    1.1904   -0.9478 H   0  0  0  0  0  0  0  0  0  0  0  0
   -0.6064    1.0923    0.7059 H   0  0  0  0  0  0  0  0  0  0  0  0
   -1.1718   -0.7557   -0.0846 C   0  0  0  0  0  0  0  0  0  0  0  0
   -0.7164   -0.9518    0.8919 H   0  0  0  0  0  0  0  0  0  0  0  0
   -0.8187   -1.2108   -1.0999 H   0  0  0  0  0  0  0  0  0  0  0  0
    2.0876    0.0428    0.0701 Br  0  0  0  0  0 15  0  0  0  0  0  0
   -2.7128    1.1613   -0.2488 C   0  0  0  0  0  0  0  0  0  0  0  0
   -2.8466    1.2224   -1.4054 H   0  0  0  0  0  0  0  0  0  0  0  0
   -2.8985    2.1847    0.1425 H   0  0  0  0  0  0  0  0  0  0  0  0
   -3.5625   -0.0726    0.2104 C   0  0  0  0  0  0  0  0  0  0  0  0
   -4.7564   -0.0989   -0.2614 H   0  0  0  0  0  0  0  0  0  0  0  0
   -3.7273    0.1136    1.3753 H   0  0  0  0  0  0  0  0  0  0  0  0
   -2.6818   -1.2391   -0.1067 O   0  0  0  0  0  0  0  0  0  0  0  0
  1  4  1  0  0  0  0
  1  3  1  0  0  0  0
  2  1  1  0  0  0  0
  4  5  1  0  0  0  0
  6  4  1  0  0  0  0
  8  1  1  0  0  0  0
  8 10  1  0  0  0  0
  8 11  1  0  0  0  0
  9  8  1  0  0  0  0
 11 13  1  0  0  0  0
 12 11  1  0  0  0  0
 14  4  1  0  0  0  0
 14 11  1  0  0  0  0
M  END
$$$$
Title Card Required
 OpenBabel07152211483D

 14 13  0  0  0  0  0  0  0  0999 V2000
   -1.2593    0.7278   -0.1347 C   0  0  0  0  0  0  0  0  0  0  0  0
   -0.8379    1.2579   -0.9294 H   0  0  0  0  0  0  0  0  0  0  0  0
   -0.6244    1.1313    0.6824 H   0  0  0  0  0  0  0  0  0  0  0  0
   -1.1595   -0.7768   -0.0930 C   0  0  0  0  0  0  0  0  0  0  0  0
   -0.6734   -0.9537    0.8879 H   0  0  0  0  0  0  0  0  0  0  0  0
   -0.7664   -1.2691   -1.0620 H   0  0  0  0  0  0  0  0  0  0  0  0
    2.0942    0.0441    0.0704 Br  0  0  0  0  0 15  0  0  0  0  0  0
   -2.7332    1.1697   -0.2617 C   0  0  0  0  0  0  0  0  0  0  0  0
   -2.8297    1.2468   -1.4580 H   0  0  0  0  0  0  0  0  0  0  0  0
   -2.9090    2.1788    0.1855 H   0  0  0  0  0  0  0  0  0  0  0  0
   -3.5876   -0.0503    0.2145 C   0  0  0  0  0  0  0  0  0  0  0  0
   -4.7779   -0.0878   -0.2274 H   0  0  0  0  0  0  0  0  0  0  0  0
   -3.7390    0.0692    1.3889 H   0  0  0  0  0  0  0  0  0  0  0  0
   -2.6946   -1.2458   -0.1075 O   0  0  0  0  0  0  0  0  0  0  0  0
  1  4  1  0  0  0  0
  1  3  1  0  0  0  0
  2  1  1  0  0  0  0
  4  5  1  0  0  0  0
  6  4  1  0  0  0  0
  8  1  1  0  0  0  0
  8 10  1  0  0  0  0
  8 11  1  0  0  0  0
  9  8  1  0  0  0  0
 11 13  1  0  0  0  0
 12 11  1  0  0  0  0
 14  4  1  0  0  0  0
 14 11  1  0  0  0  0
M  END
$$$$
Title Card Required
 OpenBabel07152211483D

 14 13  0  0  0  0  0  0  0  0999 V2000
   -1.2507    0.7171   -0.1223 C   0  0  0  0  0  0  0  0  0  0  0  0
   -0.8874    1.3274   -0.9308 H   0  0  0  0  0  0  0  0  0  0  0  0
   -0.6510    1.1703    0.6613 H   0  0  0  0  0  0  0  0  0  0  0  0
   -1.1496   -0.7986   -0.1029 C   0  0  0  0  0  0  0  0  0  0  0  0
   -0.6311   -0.9678    0.8755 H   0  0  0  0  0  0  0  0  0  0  0  0
   -0.7150   -1.3219   -1.0025 H   0  0  0  0  0  0  0  0  0  0  0  0
    2.1007    0.0454    0.0706 Br  0  0  0  0  0 15  0  0  0  0  0  0
   -2.7543    1.1774   -0.2768 C   0  0  0  0  0  0  0  0  0  0  0  0
   -2.8172    1.2722   -1.4843 H   0  0  0  0  0  0  0  0  0  0  0  0
   -2.9226    2.1652    0.2273 H   0  0  0  0  0  0  0  0  0  0  0  0
   -3.6129   -0.0283    0.2195 C   0  0  0  0  0  0  0  0  0  0  0  0
   -4.7614   -0.0805   -0.1851 H   0  0  0  0  0  0  0  0  0  0  0  0
   -3.7474    0.0185    1.3810 H   0  0  0  0  0  0  0  0  0  0  0  0
   -2.7076   -1.2506   -0.1078 O   0  0  0  0  0  0  0  0  0  0  0  0
  1  4  1  0  0  0  0
  1  3  1  0  0  0  0
  2  1  1  0  0  0  0
  4  5  1  0  0  0  0
  6  4  1  0  0  0  0
  8  1  1  0  0  0  0
  8 11  1  0  0  0  0
  8 10  1  0  0  0  0
  9  8  1  0  0  0  0
 11 13  1  0  0  0  0
 12 11  1  0  0  0  0
 14  4  1  0  0  0  0
 14 11  1  0  0  0  0
M  END
$$$$
Title Card Required
 OpenBabel07152211483D

 14 13  0  0  0  0  0  0  0  0999 V2000
   -1.2429    0.7076   -0.1103 C   0  0  0  0  0  0  0  0  0  0  0  0
   -0.9229    1.3904   -0.9443 H   0  0  0  0  0  0  0  0  0  0  0  0
   -0.6807    1.2086    0.6505 H   0  0  0  0  0  0  0  0  0  0  0  0
   -1.1424   -0.8204   -0.1130 C   0  0  0  0  0  0  0  0  0  0  0  0
   -0.5935   -0.9929    0.8535 H   0  0  0  0  0  0  0  0  0  0  0  0
   -0.6657   -1.3696   -0.9306 H   0  0  0  0  0  0  0  0  0  0  0  0
    2.1074    0.0467    0.0709 Br  0  0  0  0  0 15  0  0  0  0  0  0
   -2.7754    1.1842   -0.2937 C   0  0  0  0  0  0  0  0  0  0  0  0
   -2.8115    1.2979   -1.4806 H   0  0  0  0  0  0  0  0  0  0  0  0
   -2.9383    2.1440    0.2647 H   0  0  0  0  0  0  0  0  0  0  0  0
   -3.6377   -0.0072    0.2252 C   0  0  0  0  0  0  0  0  0  0  0  0
   -4.7129   -0.0771   -0.1390 H   0  0  0  0  0  0  0  0  0  0  0  0
   -3.7520   -0.0333    1.3545 H   0  0  0  0  0  0  0  0  0  0  0  0
   -2.7207   -1.2535   -0.1076 O   0  0  0  0  0  0  0  0  0  0  0  0
  1  3  1  0  0  0  0
  2  1  1  0  0  0  0
  4  1  1  0  0  0  0
  4 14  1  0  0  0  0
  4  5  1  0  0  0  0
  6  4  1  0  0  0  0
  8  1  1  0  0  0  0
  8 11  1  0  0  0  0
  8 10  1  0  0  0  0
  9  8  1  0  0  0  0
 11 13  1  0  0  0  0
 12 11  1  0  0  0  0
 14 11  1  0  0  0  0
M  END
$$$$
Title Card Required
 OpenBabel07152211483D

 14 13  0  0  0  0  0  0  0  0999 V2000
   -1.2364    0.7000   -0.1001 C   0  0  0  0  0  0  0  0  0  0  0  0
   -0.9470    1.4374   -0.9594 H   0  0  0  0  0  0  0  0  0  0  0  0
   -0.7104    1.2469    0.6560 H   0  0  0  0  0  0  0  0  0  0  0  0
   -1.1379   -0.8422   -0.1223 C   0  0  0  0  0  0  0  0  0  0  0  0
   -0.5629   -1.0286    0.8221 H   0  0  0  0  0  0  0  0  0  0  0  0
   -0.6161   -1.4165   -0.8569 H   0  0  0  0  0  0  0  0  0  0  0  0
    2.1143    0.0480    0.0712 Br  0  0  0  0  0 15  0  0  0  0  0  0
   -2.7968    1.1900   -0.3120 C   0  0  0  0  0  0  0  0  0  0  0  0
   -2.8154    1.3241   -1.4475 H   0  0  0  0  0  0  0  0  0  0  0  0
   -2.9561    2.1156    0.2959 H   0  0  0  0  0  0  0  0  0  0  0  0
   -3.6610    0.0133    0.2315 C   0  0  0  0  0  0  0  0  0  0  0  0
   -4.6478   -0.0788   -0.0962 H   0  0  0  0  0  0  0  0  0  0  0  0
   -3.7525   -0.0828    1.3166 H   0  0  0  0  0  0  0  0  0  0  0  0
   -2.7339   -1.2546   -0.1071 O   0  0  0  0  0  0  0  0  0  0  0  0
  1  3  1  0  0  0  0
  2  1  1  0  0  0  0
  4 14  1  0  0  0  0
  4  1  1  0  0  0  0
  4  5  1  0  0  0  0
  6  4  1  0  0  0  0
  8  1  1  0  0  0  0
  8 11  1  0  0  0  0
  8 10  1  0  0  0  0
  9  8  1  0  0  0  0
 11 13  1  0  0  0  0
 12 11  1  0  0  0  0
 14 11  1  0  0  0  0
M  END
$$$$
Title Card Required
 OpenBabel07152211483D

 14 13  0  0  0  0  0  0  0  0999 V2000
   -1.2311    0.6949   -0.0928 C   0  0  0  0  0  0  0  0  0  0  0  0
   -0.9595    1.4573   -0.9669 H   0  0  0  0  0  0  0  0  0  0  0  0
   -0.7411    1.2848    0.6830 H   0  0  0  0  0  0  0  0  0  0  0  0
   -1.1371   -0.8647   -0.1303 C   0  0  0  0  0  0  0  0  0  0  0  0
   -0.5418   -1.0779    0.7825 H   0  0  0  0  0  0  0  0  0  0  0  0
   -0.5601   -1.4714   -0.7920 H   0  0  0  0  0  0  0  0  0  0  0  0
    2.1222    0.0496    0.0715 Br  0  0  0  0  0 15  0  0  0  0  0  0
   -2.8202    1.1946   -0.3313 C   0  0  0  0  0  0  0  0  0  0  0  0
   -2.8344    1.3537   -1.3895 H   0  0  0  0  0  0  0  0  0  0  0  0
   -2.9771    2.0795    0.3200 H   0  0  0  0  0  0  0  0  0  0  0  0
   -3.6803    0.0344    0.2386 C   0  0  0  0  0  0  0  0  0  0  0  0
   -4.6016   -0.0912   -0.0725 H   0  0  0  0  0  0  0  0  0  0  0  0
   -3.7478   -0.1283    1.2804 H   0  0  0  0  0  0  0  0  0  0  0  0
   -2.7484   -1.2538   -0.1062 O   0  0  0  0  0  0  0  0  0  0  0  0
  1  3  1  0  0  0  0
  2  1  1  0  0  0  0
  4 14  1  0  0  0  0
  4  1  1  0  0  0  0
  4  5  1  0  0  0  0
  6  4  1  0  0  0  0
  8  1  1  0  0  0  0
  8 11  1  0  0  0  0
  8 10  1  0  0  0  0
  9  8  1  0  0  0  0
 11 13  1  0  0  0  0
 12 11  1  0  0  0  0
 14 11  1  0  0  0  0
M  END
$$$$
Title Card Required
 OpenBabel07152211483D

 14 13  0  0  0  0  0  0  0  0999 V2000
   -1.2281    0.6942   -0.0902 C   0  0  0  0  0  0  0  0  0  0  0  0
   -0.9529    1.4304   -0.9564 H   0  0  0  0  0  0  0  0  0  0  0  0
   -0.7764    1.3106    0.7310 H   0  0  0  0  0  0  0  0  0  0  0  0
   -1.1422   -0.8868   -0.1356 C   0  0  0  0  0  0  0  0  0  0  0  0
   -0.5367   -1.1415    0.7449 H   0  0  0  0  0  0  0  0  0  0  0  0
   -0.5000   -1.5353   -0.7540 H   0  0  0  0  0  0  0  0  0  0  0  0
    2.1314    0.0513    0.0719 Br  0  0  0  0  0 15  0  0  0  0  0  0
   -2.8452    1.1964   -0.3472 C   0  0  0  0  0  0  0  0  0  0  0  0
   -2.8778    1.3914   -1.3407 H   0  0  0  0  0  0  0  0  0  0  0  0
   -3.0013    2.0409    0.3331 H   0  0  0  0  0  0  0  0  0  0  0  0
   -3.6885    0.0557    0.2457 C   0  0  0  0  0  0  0  0  0  0  0  0
   -4.6396   -0.1260   -0.0990 H   0  0  0  0  0  0  0  0  0  0  0  0
   -3.7360   -0.1620    1.2747 H   0  0  0  0  0  0  0  0  0  0  0  0
   -2.7638   -1.2503   -0.1051 O   0  0  0  0  0  0  0  0  0  0  0  0
  1  3  1  0  0  0  0
  2  1  1  0  0  0  0
  4 14  1  0  0  0  0
  4  1  1  0  0  0  0
  4  5  1  0  0  0  0
  6  4  1  0  0  0  0
  8  1  1  0  0  0  0
  8 11  1  0  0  0  0
  8 10  1  0  0  0  0
  9  8  1  0  0  0  0
 11 13  1  0  0  0  0
 12 11  1  0  0  0  0
 14 11  1  0  0  0  0
M  END
$$$$
Title Card Required
 OpenBabel07152211483D

 14 13  0  0  0  0  0  0  0  0999 V2000
   -1.2287    0.6987   -0.0925 C   0  0  0  0  0  0  0  0  0  0  0  0
   -0.9218    1.3564   -0.9296 H   0  0  0  0  0  0  0  0  0  0  0  0
   -0.8172    1.3056    0.7800 H   0  0  0  0  0  0  0  0  0  0  0  0
   -1.1530   -0.9048   -0.1380 C   0  0  0  0  0  0  0  0  0  0  0  0
   -0.5524   -1.2061    0.7302 H   0  0  0  0  0  0  0  0  0  0  0  0
   -0.4609   -1.5847   -0.7524 H   0  0  0  0  0  0  0  0  0  0  0  0
    2.1406    0.0531    0.0723 Br  0  0  0  0  0 15  0  0  0  0  0  0
   -2.8668    1.1937   -0.3518 C   0  0  0  0  0  0  0  0  0  0  0  0
   -2.9436    1.4387   -1.3590 H   0  0  0  0  0  0  0  0  0  0  0  0
   -3.0247    2.0164    0.3351 H   0  0  0  0  0  0  0  0  0  0  0  0
   -3.6853    0.0718    0.2493 C   0  0  0  0  0  0  0  0  0  0  0  0
   -4.7309   -0.1740   -0.1640 H   0  0  0  0  0  0  0  0  0  0  0  0
   -3.7197   -0.1707    1.3109 H   0  0  0  0  0  0  0  0  0  0  0  0
   -2.7772   -1.2446   -0.1041 O   0  0  0  0  0  0  0  0  0  0  0  0
  1  3  1  0  0  0  0
  2  1  1  0  0  0  0
  4 14  1  0  0  0  0
  4  1  1  0  0  0  0
  4  5  1  0  0  0  0
  6  4  1  0  0  0  0
  8  1  1  0  0  0  0
  8 11  1  0  0  0  0
  8 10  1  0  0  0  0
  9  8  1  0  0  0  0
 11 13  1  0  0  0  0
 12 11  1  0  0  0  0
 14 11  1  0  0  0  0
M  END
$$$$
Title Card Required
 OpenBabel07152211483D

 14 13  0  0  0  0  0  0  0  0999 V2000
   -1.2331    0.7059   -0.0970 C   0  0  0  0  0  0  0  0  0  0  0  0
   -0.8638    1.2599   -0.9066 H   0  0  0  0  0  0  0  0  0  0  0  0
   -0.8643    1.2666    0.8175 H   0  0  0  0  0  0  0  0  0  0  0  0
   -1.1680   -0.9194   -0.1383 C   0  0  0  0  0  0  0  0  0  0  0  0
   -0.5893   -1.2647    0.7423 H   0  0  0  0  0  0  0  0  0  0  0  0
   -0.4592   -1.6023   -0.7755 H   0  0  0  0  0  0  0  0  0  0  0  0
    2.1495    0.0548    0.0728 Br  0  0  0  0  0 15  0  0  0  0  0  0
   -2.8841    1.1873   -0.3477 C   0  0  0  0  0  0  0  0  0  0  0  0
   -3.0247    1.4882   -1.4197 H   0  0  0  0  0  0  0  0  0  0  0  0
   -3.0463    2.0143    0.3320 H   0  0  0  0  0  0  0  0  0  0  0  0
   -3.6785    0.0794    0.2487 C   0  0  0  0  0  0  0  0  0  0  0  0
   -4.7914   -0.2143   -0.2261 H   0  0  0  0  0  0  0  0  0  0  0  0
   -3.7030   -0.1488    1.3587 H   0  0  0  0  0  0  0  0  0  0  0  0
   -2.7882   -1.2369   -0.1033 O   0  0  0  0  0  0  0  0  0  0  0  0
  1  3  1  0  0  0  0
  2  1  1  0  0  0  0
  4 14  1  0  0  0  0
  4  1  1  0  0  0  0
  4  5  1  0  0  0  0
  6  4  1  0  0  0  0
  8  1  1  0  0  0  0
  8 11  1  0  0  0  0
  8 10  1  0  0  0  0
  9  8  1  0  0  0  0
 11 13  1  0  0  0  0
 12 11  1  0  0  0  0
 14 11  1  0  0  0  0
M  END
$$$$
Title Card Required
 OpenBabel07152211483D

 14 13  0  0  0  0  0  0  0  0999 V2000
   -1.2421    0.7125   -0.1011 C   0  0  0  0  0  0  0  0  0  0  0  0
   -0.7750    1.1685   -0.9118 H   0  0  0  0  0  0  0  0  0  0  0  0
   -0.9142    1.2017    0.8414 H   0  0  0  0  0  0  0  0  0  0  0  0
   -1.1863   -0.9311   -0.1369 C   0  0  0  0  0  0  0  0  0  0  0  0
   -0.6482   -1.3121    0.7725 H   0  0  0  0  0  0  0  0  0  0  0  0
   -0.4989   -1.5831   -0.8133 H   0  0  0  0  0  0  0  0  0  0  0  0
    2.1582    0.0564    0.0732 Br  0  0  0  0  0 15  0  0  0  0  0  0
   -2.8969    1.1799   -0.3412 C   0  0  0  0  0  0  0  0  0  0  0  0
   -3.1095    1.5249   -1.4635 H   0  0  0  0  0  0  0  0  0  0  0  0
   -3.0651    2.0328    0.3258 H   0  0  0  0  0  0  0  0  0  0  0  0
   -3.6715    0.0771    0.2452 C   0  0  0  0  0  0  0  0  0  0  0  0
   -4.7907   -0.2357   -0.2640 H   0  0  0  0  0  0  0  0  0  0  0  0
   -3.6898   -0.0964    1.3884 H   0  0  0  0  0  0  0  0  0  0  0  0
   -2.7968   -1.2276   -0.1026 O   0  0  0  0  0  0  0  0  0  0  0  0
  1  3  1  0  0  0  0
  2  1  1  0  0  0  0
  4 14  1  0  0  0  0
  4  1  1  0  0  0  0
  4  5  1  0  0  0  0
  6  4  1  0  0  0  0
  8  1  1  0  0  0  0
  8 11  1  0  0  0  0
  8 10  1  0  0  0  0
  9  8  1  0  0  0  0
 11 13  1  0  0  0  0
 12 11  1  0  0  0  0
 14 11  1  0  0  0  0
M  END
$$$$
Title Card Required
 OpenBabel07152211483D

 14 13  0  0  0  0  0  0  0  0999 V2000
   -1.2545    0.7162   -0.1045 C   0  0  0  0  0  0  0  0  0  0  0  0
   -0.6719    1.0980   -0.9393 H   0  0  0  0  0  0  0  0  0  0  0  0
   -0.9569    1.1314    0.8562 H   0  0  0  0  0  0  0  0  0  0  0  0
   -1.2057   -0.9393   -0.1335 C   0  0  0  0  0  0  0  0  0  0  0  0
   -0.7197   -1.3431    0.8044 H   0  0  0  0  0  0  0  0  0  0  0  0
   -0.5663   -1.5376   -0.8556 H   0  0  0  0  0  0  0  0  0  0  0  0
    2.1659    0.0579    0.0736 Br  0  0  0  0  0 15  0  0  0  0  0  0
   -2.9049    1.1744   -0.3361 C   0  0  0  0  0  0  0  0  0  0  0  0
   -3.1800    1.5387   -1.4637 H   0  0  0  0  0  0  0  0  0  0  0  0
   -3.0790    2.0594    0.3153 H   0  0  0  0  0  0  0  0  0  0  0  0
   -3.6653    0.0663    0.2407 C   0  0  0  0  0  0  0  0  0  0  0  0
   -4.7396   -0.2372   -0.2736 H   0  0  0  0  0  0  0  0  0  0  0  0
   -3.6832   -0.0278    1.3896 H   0  0  0  0  0  0  0  0  0  0  0  0
   -2.8029   -1.2179   -0.1023 O   0  0  0  0  0  0  0  0  0  0  0  0
  1  3  1  0  0  0  0
  2  1  1  0  0  0  0
  4  1  1  0  0  0  0
  4 14  1  0  0  0  0
  4  5  1  0  0  0  0
  6  4  1  0  0  0  0
  8  1  1  0  0  0  0
  8 11  1  0  0  0  0
  8 10  1  0  0  0  0
  9  8  1  0  0  0  0
 11 13  1  0  0  0  0
 12 11  1  0  0  0  0
 14 11  1  0  0  0  0
M  END
$$$$
Title Card Required
 OpenBabel07152211483D

 14 13  0  0  0  0  0  0  0  0999 V2000
   -1.2682    0.7175   -0.1090 C   0  0  0  0  0  0  0  0  0  0  0  0
   -0.5749    1.0405   -0.9629 H   0  0  0  0  0  0  0  0  0  0  0  0
   -0.9895    1.0674    0.8698 H   0  0  0  0  0  0  0  0  0  0  0  0
   -1.2260   -0.9443   -0.1284 C   0  0  0  0  0  0  0  0  0  0  0  0
   -0.7949   -1.3610    0.8294 H   0  0  0  0  0  0  0  0  0  0  0  0
   -0.6448   -1.4815   -0.8990 H   0  0  0  0  0  0  0  0  0  0  0  0
    2.1727    0.0591    0.0739 Br  0  0  0  0  0 15  0  0  0  0  0  0
   -2.9095    1.1715   -0.3329 C   0  0  0  0  0  0  0  0  0  0  0  0
   -3.2332    1.5334   -1.4306 H   0  0  0  0  0  0  0  0  0  0  0  0
   -3.0881    2.0835    0.3003 H   0  0  0  0  0  0  0  0  0  0  0  0
   -3.6596    0.0505    0.2359 C   0  0  0  0  0  0  0  0  0  0  0  0
   -4.6623   -0.2261   -0.2637 H   0  0  0  0  0  0  0  0  0  0  0  0
   -3.6823    0.0443    1.3708 H   0  0  0  0  0  0  0  0  0  0  0  0
   -2.8071   -1.2084   -0.1020 O   0  0  0  0  0  0  0  0  0  0  0  0
  1  3  1  0  0  0  0
  2  1  1  0  0  0  0
  4  1  1  0  0  0  0
  4 14  1  0  0  0  0
  4  5  1  0  0  0  0
  6  4  1  0  0  0  0
  8  1  1  0  0  0  0
  8 11  1  0  0  0  0
  8 10  1  0  0  0  0
  9  8  1  0  0  0  0
 11 13  1  0  0  0  0
 12 11  1  0  0  0  0
 14 11  1  0  0  0  0
M  END
$$$$
Title Card Required
 OpenBabel07152211483D

 14 13  0  0  0  0  0  0  0  0999 V2000
   -1.2822    0.7170   -0.1156 C   0  0  0  0  0  0  0  0  0  0  0  0
   -0.4933    0.9888   -0.9690 H   0  0  0  0  0  0  0  0  0  0  0  0
   -1.0136    1.0115    0.8863 H   0  0  0  0  0  0  0  0  0  0  0  0
   -1.2482   -0.9467   -0.1215 C   0  0  0  0  0  0  0  0  0  0  0  0
   -0.8708   -1.3706    0.8459 H   0  0  0  0  0  0  0  0  0  0  0  0
   -0.7272   -1.4231   -0.9454 H   0  0  0  0  0  0  0  0  0  0  0  0
    2.1790    0.0603    0.0742 Br  0  0  0  0  0 15  0  0  0  0  0  0
   -2.9116    1.1707   -0.3309 C   0  0  0  0  0  0  0  0  0  0  0  0
   -3.2724    1.5143   -1.3769 H   0  0  0  0  0  0  0  0  0  0  0  0
   -3.0935    2.1015    0.2815 H   0  0  0  0  0  0  0  0  0  0  0  0
   -3.6530    0.0313    0.2312 C   0  0  0  0  0  0  0  0  0  0  0  0
   -4.5775   -0.2092   -0.2441 H   0  0  0  0  0  0  0  0  0  0  0  0
   -3.6860    0.1154    1.3418 H   0  0  0  0  0  0  0  0  0  0  0  0
   -2.8102   -1.1987   -0.1019 O   0  0  0  0  0  0  0  0  0  0  0  0
  1  3  1  0  0  0  0
  2  1  1  0  0  0  0
  4  1  1  0  0  0  0
  4 14  1  0  0  0  0
  4  5  1  0  0  0  0
  6  4  1  0  0  0  0
  8  1  1  0  0  0  0
  8 11  1  0  0  0  0
  8 10  1  0  0  0  0
  9  8  1  0  0  0  0
 11 13  1  0  0  0  0
 12 11  1  0  0  0  0
 14 11  1  0  0  0  0
M  END
$$$$
Title Card Required
 OpenBabel07152211483D

 14 13  0  0  0  0  0  0  0  0999 V2000
   -1.2964    0.7147   -0.1248 C   0  0  0  0  0  0  0  0  0  0  0  0
   -0.4303    0.9399   -0.9526 H   0  0  0  0  0  0  0  0  0  0  0  0
   -1.0312    0.9620    0.9050 H   0  0  0  0  0  0  0  0  0  0  0  0
   -1.2738   -0.9464   -0.1130 C   0  0  0  0  0  0  0  0  0  0  0  0
   -0.9461   -1.3749    0.8547 H   0  0  0  0  0  0  0  0  0  0  0  0
   -0.8118   -1.3655   -0.9969 H   0  0  0  0  0  0  0  0  0  0  0  0
    2.1852    0.0614    0.0745 Br  0  0  0  0  0 15  0  0  0  0  0  0
   -2.9118    1.1717   -0.3297 C   0  0  0  0  0  0  0  0  0  0  0  0
   -3.3010    1.4850   -1.3126 H   0  0  0  0  0  0  0  0  0  0  0  0
   -3.0957    2.1125    0.2598 H   0  0  0  0  0  0  0  0  0  0  0  0
   -3.6435    0.0096    0.2268 C   0  0  0  0  0  0  0  0  0  0  0  0
   -4.5068   -0.1928   -0.2264 H   0  0  0  0  0  0  0  0  0  0  0  0
   -3.6942    0.1844    1.3092 H   0  0  0  0  0  0  0  0  0  0  0  0
   -2.8127   -1.1887   -0.1017 O   0  0  0  0  0  0  0  0  0  0  0  0
  1  4  1  0  0  0  0
  1  3  1  0  0  0  0
  2  1  1  0  0  0  0
  4 14  1  0  0  0  0
  4  5  1  0  0  0  0
  6  4  1  0  0  0  0
  8  1  1  0  0  0  0
  8 11  1  0  0  0  0
  8 10  1  0  0  0  0
  9  8  1  0  0  0  0
 11 13  1  0  0  0  0
 12 11  1  0  0  0  0
 14 11  1  0  0  0  0
M  END
$$$$
Title Card Required
 OpenBabel07152211483D

 14 13  0  0  0  0  0  0  0  0999 V2000
   -1.3108    0.7106   -0.1363 C   0  0  0  0  0  0  0  0  0  0  0  0
   -0.3890    0.8938   -0.9113 H   0  0  0  0  0  0  0  0  0  0  0  0
   -1.0443    0.9185    0.9222 H   0  0  0  0  0  0  0  0  0  0  0  0
   -1.3042   -0.9432   -0.1029 C   0  0  0  0  0  0  0  0  0  0  0  0
   -1.0182   -1.3766    0.8571 H   0  0  0  0  0  0  0  0  0  0  0  0
   -0.8987   -1.3103   -1.0524 H   0  0  0  0  0  0  0  0  0  0  0  0
    2.1915    0.0625    0.0748 Br  0  0  0  0  0 15  0  0  0  0  0  0
   -2.9096    1.1739   -0.3284 C   0  0  0  0  0  0  0  0  0  0  0  0
   -3.3228    1.4490   -1.2522 H   0  0  0  0  0  0  0  0  0  0  0  0
   -3.0947    2.1164    0.2370 H   0  0  0  0  0  0  0  0  0  0  0  0
   -3.6283   -0.0140    0.2236 C   0  0  0  0  0  0  0  0  0  0  0  0
   -4.4782   -0.1837   -0.2254 H   0  0  0  0  0  0  0  0  0  0  0  0
   -3.7070    0.2491    1.2790 H   0  0  0  0  0  0  0  0  0  0  0  0
   -2.8147   -1.1780   -0.1015 O   0  0  0  0  0  0  0  0  0  0  0  0
  1  4  1  0  0  0  0
  1  3  1  0  0  0  0
  2  1  1  0  0  0  0
  4 14  1  0  0  0  0
  4  5  1  0  0  0  0
  6  4  1  0  0  0  0
  8  1  1  0  0  0  0
  8 11  1  0  0  0  0
  8 10  1  0  0  0  0
  9  8  1  0  0  0  0
 11 13  1  0  0  0  0
 12 11  1  0  0  0  0
 14 11  1  0  0  0  0
M  END
$$$$
Title Card Required
 OpenBabel07152211483D

 14 13  0  0  0  0  0  0  0  0999 V2000
   -1.3245    0.7046   -0.1488 C   0  0  0  0  0  0  0  0  0  0  0  0
   -0.3729    0.8543   -0.8478 H   0  0  0  0  0  0  0  0  0  0  0  0
   -1.0545    0.8831    0.9315 H   0  0  0  0  0  0  0  0  0  0  0  0
   -1.3388   -0.9369   -0.0930 C   0  0  0  0  0  0  0  0  0  0  0  0
   -1.0797   -1.3787    0.8560 H   0  0  0  0  0  0  0  0  0  0  0  0
   -0.9844   -1.2606   -1.1032 H   0  0  0  0  0  0  0  0  0  0  0  0
    2.1978    0.0637    0.0750 Br  0  0  0  0  0 15  0  0  0  0  0  0
   -2.9046    1.1765   -0.3259 C   0  0  0  0  0  0  0  0  0  0  0  0
   -3.3429    1.4130   -1.2178 H   0  0  0  0  0  0  0  0  0  0  0  0
   -3.0908    2.1148    0.2174 H   0  0  0  0  0  0  0  0  0  0  0  0
   -3.6071   -0.0380    0.2219 C   0  0  0  0  0  0  0  0  0  0  0  0
   -4.5049   -0.1842   -0.2478 H   0  0  0  0  0  0  0  0  0  0  0  0
   -3.7238    0.3038    1.2573 H   0  0  0  0  0  0  0  0  0  0  0  0
   -2.8165   -1.1671   -0.1012 O   0  0  0  0  0  0  0  0  0  0  0  0
  1  4  1  0  0  0  0
  1  3  1  0  0  0  0
  2  1  1  0  0  0  0
  4  5  1  0  0  0  0
  6  4  1  0  0  0  0
  8  1  1  0  0  0  0
  8 10  1  0  0  0  0
  8 11  1  0  0  0  0
  9  8  1  0  0  0  0
 11 13  1  0  0  0  0
 12 11  1  0  0  0  0
 14  4  1  0  0  0  0
 14 11  1  0  0  0  0
M  END
$$$$
Title Card Required
 OpenBabel07152211483D

 14 13  0  0  0  0  0  0  0  0999 V2000
   -1.3373    0.6970   -0.1607 C   0  0  0  0  0  0  0  0  0  0  0  0
   -0.3796    0.8243   -0.7702 H   0  0  0  0  0  0  0  0  0  0  0  0
   -1.0636    0.8572    0.9288 H   0  0  0  0  0  0  0  0  0  0  0  0
   -1.3767   -0.9278   -0.0846 C   0  0  0  0  0  0  0  0  0  0  0  0
   -1.1251   -1.3835    0.8547 H   0  0  0  0  0  0  0  0  0  0  0  0
   -1.0661   -1.2186   -1.1399 H   0  0  0  0  0  0  0  0  0  0  0  0
    2.2040    0.0648    0.0753 Br  0  0  0  0  0 15  0  0  0  0  0  0
   -2.8965    1.1785   -0.3219 C   0  0  0  0  0  0  0  0  0  0  0  0
   -3.3650    1.3810   -1.2220 H   0  0  0  0  0  0  0  0  0  0  0  0
   -3.0849    2.1108    0.2048 H   0  0  0  0  0  0  0  0  0  0  0  0
   -3.5830   -0.0613    0.2211 C   0  0  0  0  0  0  0  0  0  0  0  0
   -4.5632   -0.1896   -0.2815 H   0  0  0  0  0  0  0  0  0  0  0  0
   -3.7431    0.3430    1.2460 H   0  0  0  0  0  0  0  0  0  0  0  0
   -2.8183   -1.1565   -0.1006 O   0  0  0  0  0  0  0  0  0  0  0  0
  1  4  1  0  0  0  0
  1  3  1  0  0  0  0
  2  1  1  0  0  0  0
  4  5  1  0  0  0  0
  6  4  1  0  0  0  0
  8  1  1  0  0  0  0
  8 10  1  0  0  0  0
  8 11  1  0  0  0  0
  9  8  1  0  0  0  0
 11 13  1  0  0  0  0
 12 11  1  0  0  0  0
 14  4  1  0  0  0  0
 14 11  1  0  0  0  0
M  END
$$$$
Title Card Required
 OpenBabel07152211483D

 14 13  0  0  0  0  0  0  0  0999 V2000
   -1.3499    0.6876   -0.1712 C   0  0  0  0  0  0  0  0  0  0  0  0
   -0.4010    0.8055   -0.6871 H   0  0  0  0  0  0  0  0  0  0  0  0
   -1.0735    0.8410    0.9134 H   0  0  0  0  0  0  0  0  0  0  0  0
   -1.4183   -0.9160   -0.0787 C   0  0  0  0  0  0  0  0  0  0  0  0
   -1.1527   -1.3923    0.8544 H   0  0  0  0  0  0  0  0  0  0  0  0
   -1.1434   -1.1848   -1.1571 H   0  0  0  0  0  0  0  0  0  0  0  0
    2.2103    0.0660    0.0756 Br  0  0  0  0  0 15  0  0  0  0  0  0
   -2.8855    1.1797   -0.3173 C   0  0  0  0  0  0  0  0  0  0  0  0
   -3.3867    1.3521   -1.2599 H   0  0  0  0  0  0  0  0  0  0  0  0
   -3.0776    2.1076    0.2013 H   0  0  0  0  0  0  0  0  0  0  0  0
   -3.5591   -0.0833    0.2202 C   0  0  0  0  0  0  0  0  0  0  0  0
   -4.6226   -0.1958   -0.3113 H   0  0  0  0  0  0  0  0  0  0  0  0
   -3.7635    0.3633    1.2432 H   0  0  0  0  0  0  0  0  0  0  0  0
   -2.8204   -1.1465   -0.0998 O   0  0  0  0  0  0  0  0  0  0  0  0
  1  4  1  0  0  0  0
  1  3  1  0  0  0  0
  2  1  1  0  0  0  0
  4  5  1  0  0  0  0
  6  4  1  0  0  0  0
  8  1  1  0  0  0  0
  8 10  1  0  0  0  0
  8 11  1  0  0  0  0
  9  8  1  0  0  0  0
 11 13  1  0  0  0  0
 12 11  1  0  0  0  0
 14  4  1  0  0  0  0
 14 11  1  0  0  0  0
M  END
$$$$
Title Card Required
 OpenBabel07152211483D

 14 13  0  0  0  0  0  0  0  0999 V2000
   -1.3639    0.6758   -0.1791 C   0  0  0  0  0  0  0  0  0  0  0  0
   -0.4234    0.8008   -0.6092 H   0  0  0  0  0  0  0  0  0  0  0  0
   -1.0856    0.8354    0.8868 H   0  0  0  0  0  0  0  0  0  0  0  0
   -1.4643   -0.9011   -0.0757 C   0  0  0  0  0  0  0  0  0  0  0  0
   -1.1613   -1.4040    0.8525 H   0  0  0  0  0  0  0  0  0  0  0  0
   -1.2152   -1.1607   -1.1516 H   0  0  0  0  0  0  0  0  0  0  0  0
    2.2169    0.0671    0.0759 Br  0  0  0  0  0 15  0  0  0  0  0  0
   -2.8716    1.1797   -0.3138 C   0  0  0  0  0  0  0  0  0  0  0  0
   -3.3994    1.3231   -1.3162 H   0  0  0  0  0  0  0  0  0  0  0  0
   -3.0695    2.1072    0.2081 H   0  0  0  0  0  0  0  0  0  0  0  0
   -3.5376   -0.1034    0.2189 C   0  0  0  0  0  0  0  0  0  0  0  0
   -4.6631   -0.2011   -0.3278 H   0  0  0  0  0  0  0  0  0  0  0  0
   -3.7834    0.3591    1.2461 H   0  0  0  0  0  0  0  0  0  0  0  0
   -2.8231   -1.1374   -0.0987 O   0  0  0  0  0  0  0  0  0  0  0  0
  1  4  1  0  0  0  0
  1  3  1  0  0  0  0
  2  1  1  0  0  0  0
  4  5  1  0  0  0  0
  6  4  1  0  0  0  0
  8  1  1  0  0  0  0
  8 10  1  0  0  0  0
  8 11  1  0  0  0  0
  9  8  1  0  0  0  0
 11 13  1  0  0  0  0
 12 11  1  0  0  0  0
 14  4  1  0  0  0  0
 14 11  1  0  0  0  0
M  END
$$$$
Title Card Required
 OpenBabel07152211483D

 14 13  0  0  0  0  0  0  0  0999 V2000
   -1.3810    0.6613   -0.1831 C   0  0  0  0  0  0  0  0  0  0  0  0
   -0.4270    0.8148   -0.5518 H   0  0  0  0  0  0  0  0  0  0  0  0
   -1.1013    0.8428    0.8553 H   0  0  0  0  0  0  0  0  0  0  0  0
   -1.5144   -0.8832   -0.0757 C   0  0  0  0  0  0  0  0  0  0  0  0
   -1.1496   -1.4146    0.8422 H   0  0  0  0  0  0  0  0  0  0  0  0
   -1.2762   -1.1506   -1.1231 H   0  0  0  0  0  0  0  0  0  0  0  0
    2.2240    0.0684    0.0762 Br  0  0  0  0  0 15  0  0  0  0  0  0
   -2.8553    1.1785   -0.3134 C   0  0  0  0  0  0  0  0  0  0  0  0
   -3.3910    1.2931   -1.3716 H   0  0  0  0  0  0  0  0  0  0  0  0
   -3.0606    2.1089    0.2247 H   0  0  0  0  0  0  0  0  0  0  0  0
   -3.5214   -0.1193    0.2175 C   0  0  0  0  0  0  0  0  0  0  0  0
   -4.6707   -0.2054   -0.3242 H   0  0  0  0  0  0  0  0  0  0  0  0
   -3.8001    0.3227    1.2525 H   0  0  0  0  0  0  0  0  0  0  0  0
   -2.8272   -1.1304   -0.0973 O   0  0  0  0  0  0  0  0  0  0  0  0
  1  4  1  0  0  0  0
  1  3  1  0  0  0  0
  2  1  1  0  0  0  0
  4  5  1  0  0  0  0
  6  4  1  0  0  0  0
  8  1  1  0  0  0  0
  8 11  1  0  0  0  0
  8 10  1  0  0  0  0
  9  8  1  0  0  0  0
 11 13  1  0  0  0  0
 12 11  1  0  0  0  0
 14  4  1  0  0  0  0
 14 11  1  0  0  0  0
M  END
$$$$
Title Card Required
 OpenBabel07152211483D

 14 13  0  0  0  0  0  0  0  0999 V2000
   -1.4010    0.6451   -0.1827 C   0  0  0  0  0  0  0  0  0  0  0  0
   -0.4040    0.8478   -0.5265 H   0  0  0  0  0  0  0  0  0  0  0  0
   -1.1199    0.8644    0.8321 H   0  0  0  0  0  0  0  0  0  0  0  0
   -1.5632   -0.8637   -0.0783 C   0  0  0  0  0  0  0  0  0  0  0  0
   -1.1211   -1.4171    0.8158 H   0  0  0  0  0  0  0  0  0  0  0  0
   -1.3148   -1.1596   -1.0815 H   0  0  0  0  0  0  0  0  0  0  0  0
    2.2312    0.0698    0.0765 Br  0  0  0  0  0 15  0  0  0  0  0  0
   -2.8384    1.1760   -0.3176 C   0  0  0  0  0  0  0  0  0  0  0  0
   -3.3534    1.2650   -1.4062 H   0  0  0  0  0  0  0  0  0  0  0  0
   -3.0510    2.1083    0.2460 H   0  0  0  0  0  0  0  0  0  0  0  0
   -3.5146   -0.1274    0.2167 C   0  0  0  0  0  0  0  0  0  0  0  0
   -4.6380   -0.2087   -0.2982 H   0  0  0  0  0  0  0  0  0  0  0  0
   -3.8090    0.2523    1.2606 H   0  0  0  0  0  0  0  0  0  0  0  0
   -2.8335   -1.1276   -0.0958 O   0  0  0  0  0  0  0  0  0  0  0  0
  1  4  1  0  0  0  0
  1  3  1  0  0  0  0
  2  1  1  0  0  0  0
  4  5  1  0  0  0  0
  6  4  1  0  0  0  0
  8  1  1  0  0  0  0
  8 11  1  0  0  0  0
  8 10  1  0  0  0  0
  9  8  1  0  0  0  0
 11 13  1  0  0  0  0
 12 11  1  0  0  0  0
 14  4  1  0  0  0  0
 14 11  1  0  0  0  0
M  END
$$$$
Title Card Required
 OpenBabel07152211483D

 14 13  0  0  0  0  0  0  0  0999 V2000
   -1.4203    0.6295   -0.1790 C   0  0  0  0  0  0  0  0  0  0  0  0
   -0.3752    0.8899   -0.5283 H   0  0  0  0  0  0  0  0  0  0  0  0
   -1.1396    0.8967    0.8270 H   0  0  0  0  0  0  0  0  0  0  0  0
   -1.6042   -0.8451   -0.0821 C   0  0  0  0  0  0  0  0  0  0  0  0
   -1.0850   -1.4067    0.7730 H   0  0  0  0  0  0  0  0  0  0  0  0
   -1.3244   -1.1882   -1.0448 H   0  0  0  0  0  0  0  0  0  0  0  0
    2.2382    0.0710    0.0768 Br  0  0  0  0  0 15  0  0  0  0  0  0
   -2.8229    1.1726   -0.3257 C   0  0  0  0  0  0  0  0  0  0  0  0
   -3.2906    1.2424   -1.4125 H   0  0  0  0  0  0  0  0  0  0  0  0
   -3.0403    2.1008    0.2641 H   0  0  0  0  0  0  0  0  0  0  0  0
   -3.5182   -0.1264    0.2169 C   0  0  0  0  0  0  0  0  0  0  0  0
   -4.5743   -0.2106   -0.2562 H   0  0  0  0  0  0  0  0  0  0  0  0
   -3.8078    0.1590    1.2704 H   0  0  0  0  0  0  0  0  0  0  0  0
   -2.8423   -1.1300   -0.0945 O   0  0  0  0  0  0  0  0  0  0  0  0
  1  4  1  0  0  0  0
  1  3  1  0  0  0  0
  2  1  1  0  0  0  0
  4  5  1  0  0  0  0
  6  4  1  0  0  0  0
  8  1  1  0  0  0  0
  8 11  1  0  0  0  0
  8 10  1  0  0  0  0
  9  8  1  0  0  0  0
 11 13  1  0  0  0  0
 12 11  1  0  0  0  0
 14  4  1  0  0  0  0
 14 11  1  0  0  0  0
M  END
$$$$
Title Card Required
 OpenBabel07152211483D

 14 13  0  0  0  0  0  0  0  0999 V2000
   -1.4364    0.6161   -0.1732 C   0  0  0  0  0  0  0  0  0  0  0  0
   -0.3630    0.9306   -0.5453 H   0  0  0  0  0  0  0  0  0  0  0  0
   -1.1598    0.9341    0.8377 H   0  0  0  0  0  0  0  0  0  0  0  0
   -1.6350   -0.8287   -0.0862 C   0  0  0  0  0  0  0  0  0  0  0  0
   -1.0488   -1.3837    0.7192 H   0  0  0  0  0  0  0  0  0  0  0  0
   -1.3078   -1.2317   -1.0222 H   0  0  0  0  0  0  0  0  0  0  0  0
    2.2448    0.0722    0.0771 Br  0  0  0  0  0 15  0  0  0  0  0  0
   -2.8096    1.1689   -0.3362 C   0  0  0  0  0  0  0  0  0  0  0  0
   -3.2126    1.2267   -1.3969 H   0  0  0  0  0  0  0  0  0  0  0  0
   -3.0287    2.0850    0.2744 H   0  0  0  0  0  0  0  0  0  0  0  0
   -3.5303   -0.1177    0.2185 C   0  0  0  0  0  0  0  0  0  0  0  0
   -4.5009   -0.2110   -0.2099 H   0  0  0  0  0  0  0  0  0  0  0  0
   -3.7977    0.0563    1.2843 H   0  0  0  0  0  0  0  0  0  0  0  0
   -2.8543   -1.1373   -0.0936 O   0  0  0  0  0  0  0  0  0  0  0  0
  1  4  1  0  0  0  0
  1  3  1  0  0  0  0
  2  1  1  0  0  0  0
  4  5  1  0  0  0  0
  6  4  1  0  0  0  0
  8  1  1  0  0  0  0
  8 11  1  0  0  0  0
  8 10  1  0  0  0  0
  9  8  1  0  0  0  0
 11 13  1  0  0  0  0
 12 11  1  0  0  0  0
 14  4  1  0  0  0  0
 14 11  1  0  0  0  0
M  END
$$$$
Title Card Required
 OpenBabel07152211483D

 14 13  0  0  0  0  0  0  0  0999 V2000
   -1.4484    0.6059   -0.1653 C   0  0  0  0  0  0  0  0  0  0  0  0
   -0.3773    0.9643   -0.5707 H   0  0  0  0  0  0  0  0  0  0  0  0
   -1.1816    0.9723    0.8568 H   0  0  0  0  0  0  0  0  0  0  0  0
   -1.6559   -0.8147   -0.0914 C   0  0  0  0  0  0  0  0  0  0  0  0
   -1.0149   -1.3497    0.6598 H   0  0  0  0  0  0  0  0  0  0  0  0
   -1.2712   -1.2843   -1.0107 H   0  0  0  0  0  0  0  0  0  0  0  0
    2.2512    0.0735    0.0773 Br  0  0  0  0  0 15  0  0  0  0  0  0
   -2.7981    1.1646   -0.3478 C   0  0  0  0  0  0  0  0  0  0  0  0
   -3.1269    1.2179   -1.3723 H   0  0  0  0  0  0  0  0  0  0  0  0
   -3.0161    2.0622    0.2755 H   0  0  0  0  0  0  0  0  0  0  0  0
   -3.5476   -0.1025    0.2222 C   0  0  0  0  0  0  0  0  0  0  0  0
   -4.4481   -0.2104   -0.1728 H   0  0  0  0  0  0  0  0  0  0  0  0
   -3.7797   -0.0490    1.3049 H   0  0  0  0  0  0  0  0  0  0  0  0
   -2.8700   -1.1490   -0.0929 O   0  0  0  0  0  0  0  0  0  0  0  0
  1  4  1  0  0  0  0
  1  3  1  0  0  0  0
  2  1  1  0  0  0  0
  4  5  1  0  0  0  0
  6  4  1  0  0  0  0
  8  1  1  0  0  0  0
  8 11  1  0  0  0  0
  8 10  1  0  0  0  0
  9  8  1  0  0  0  0
 11 13  1  0  0  0  0
 12 11  1  0  0  0  0
 14  4  1  0  0  0  0
 14 11  1  0  0  0  0
M  END
$$$$
Title Card Required
 OpenBabel07152211483D

 14 13  0  0  0  0  0  0  0  0999 V2000
   -1.4559    0.5997   -0.1548 C   0  0  0  0  0  0  0  0  0  0  0  0
   -0.4231    0.9877   -0.6012 H   0  0  0  0  0  0  0  0  0  0  0  0
   -1.2056    1.0061    0.8768 H   0  0  0  0  0  0  0  0  0  0  0  0
   -1.6667   -0.8043   -0.0987 C   0  0  0  0  0  0  0  0  0  0  0  0
   -0.9839   -1.3072    0.6021 H   0  0  0  0  0  0  0  0  0  0  0  0
   -1.2223   -1.3381   -1.0039 H   0  0  0  0  0  0  0  0  0  0  0  0
    2.2578    0.0747    0.0776 Br  0  0  0  0  0 15  0  0  0  0  0  0
   -2.7881    1.1595   -0.3588 C   0  0  0  0  0  0  0  0  0  0  0  0
   -3.0420    1.2169   -1.3580 H   0  0  0  0  0  0  0  0  0  0  0  0
   -3.0027    2.0357    0.2671 H   0  0  0  0  0  0  0  0  0  0  0  0
   -3.5666   -0.0818    0.2292 C   0  0  0  0  0  0  0  0  0  0  0  0
   -4.4547   -0.2107   -0.1617 H   0  0  0  0  0  0  0  0  0  0  0  0
   -3.7549   -0.1505    1.3322 H   0  0  0  0  0  0  0  0  0  0  0  0
   -2.8900   -1.1647   -0.0925 O   0  0  0  0  0  0  0  0  0  0  0  0
  1  4  1  0  0  0  0
  1  3  1  0  0  0  0
  2  1  1  0  0  0  0
  4 14  1  0  0  0  0
  4  5  1  0  0  0  0
  6  4  1  0  0  0  0
  8  1  1  0  0  0  0
  8 11  1  0  0  0  0
  8 10  1  0  0  0  0
  9  8  1  0  0  0  0
 11 13  1  0  0  0  0
 12 11  1  0  0  0  0
 14 11  1  0  0  0  0
M  END
$$$$
Title Card Required
 OpenBabel07152211483D

 14 13  0  0  0  0  0  0  0  0999 V2000
   -1.4584    0.5986   -0.1421 C   0  0  0  0  0  0  0  0  0  0  0  0
   -0.4947    0.9983   -0.6328 H   0  0  0  0  0  0  0  0  0  0  0  0
   -1.2295    1.0289    0.8913 H   0  0  0  0  0  0  0  0  0  0  0  0
   -1.6677   -0.7991   -0.1087 C   0  0  0  0  0  0  0  0  0  0  0  0
   -0.9564   -1.2639    0.5588 H   0  0  0  0  0  0  0  0  0  0  0  0
   -1.1733   -1.3807   -0.9964 H   0  0  0  0  0  0  0  0  0  0  0  0
    2.2642    0.0759    0.0779 Br  0  0  0  0  0 15  0  0  0  0  0  0
   -2.7802    1.1536   -0.3669 C   0  0  0  0  0  0  0  0  0  0  0  0
   -2.9713    1.2240   -1.3746 H   0  0  0  0  0  0  0  0  0  0  0  0
   -2.9905    2.0134    0.2514 H   0  0  0  0  0  0  0  0  0  0  0  0
   -3.5846   -0.0587    0.2392 C   0  0  0  0  0  0  0  0  0  0  0  0
   -4.5269   -0.2115   -0.1786 H   0  0  0  0  0  0  0  0  0  0  0  0
   -3.7267   -0.2341    1.3596 H   0  0  0  0  0  0  0  0  0  0  0  0
   -2.9125   -1.1826   -0.0926 O   0  0  0  0  0  0  0  0  0  0  0  0
  1  4  1  0  0  0  0
  1  3  1  0  0  0  0
  2  1  1  0  0  0  0
  4 14  1  0  0  0  0
  4  5  1  0  0  0  0
  6  4  1  0  0  0  0
  8  1  1  0  0  0  0
  8 11  1  0  0  0  0
  8 10  1  0  0  0  0
  9  8  1  0  0  0  0
 11 13  1  0  0  0  0
 12 11  1  0  0  0  0
 14 11  1  0  0  0  0
M  END
$$$$
Title Card Required
 OpenBabel07152211483D

 14 13  0  0  0  0  0  0  0  0999 V2000
   -1.4570    0.6023   -0.1277 C   0  0  0  0  0  0  0  0  0  0  0  0
   -0.5804    0.9991   -0.6651 H   0  0  0  0  0  0  0  0  0  0  0  0
   -1.2507    1.0388    0.8992 H   0  0  0  0  0  0  0  0  0  0  0  0
   -1.6611   -0.7995   -0.1215 C   0  0  0  0  0  0  0  0  0  0  0  0
   -0.9307   -1.2256    0.5368 H   0  0  0  0  0  0  0  0  0  0  0  0
   -1.1321   -1.4065   -0.9864 H   0  0  0  0  0  0  0  0  0  0  0  0
    2.2703    0.0771    0.0781 Br  0  0  0  0  0 15  0  0  0  0  0  0
   -2.7744    1.1469   -0.3722 C   0  0  0  0  0  0  0  0  0  0  0  0
   -2.9173    1.2373   -1.4213 H   0  0  0  0  0  0  0  0  0  0  0  0
   -2.9809    2.0021    0.2324 H   0  0  0  0  0  0  0  0  0  0  0  0
   -3.6030   -0.0357    0.2507 C   0  0  0  0  0  0  0  0  0  0  0  0
   -4.6262   -0.2078   -0.2054 H   0  0  0  0  0  0  0  0  0  0  0  0
   -3.6982   -0.2929    1.3804 H   0  0  0  0  0  0  0  0  0  0  0  0
   -2.9362   -1.2012   -0.0930 O   0  0  0  0  0  0  0  0  0  0  0  0
  1  4  1  0  0  0  0
  1  3  1  0  0  0  0
  2  1  1  0  0  0  0
  4 14  1  0  0  0  0
  4  5  1  0  0  0  0
  6  4  1  0  0  0  0
  8  1  1  0  0  0  0
  8 10  1  0  0  0  0
  8 11  1  0  0  0  0
  9  8  1  0  0  0  0
 11 13  1  0  0  0  0
 12 11  1  0  0  0  0
 14 11  1  0  0  0  0
M  END
$$$$
Title Card Required
 OpenBabel07152211483D

 14 13  0  0  0  0  0  0  0  0999 V2000
   -1.4532    0.6099   -0.1110 C   0  0  0  0  0  0  0  0  0  0  0  0
   -0.6681    0.9957   -0.7025 H   0  0  0  0  0  0  0  0  0  0  0  0
   -1.2673    1.0364    0.9023 H   0  0  0  0  0  0  0  0  0  0  0  0
   -1.6488   -0.8052   -0.1372 C   0  0  0  0  0  0  0  0  0  0  0  0
   -0.9054   -1.1946    0.5383 H   0  0  0  0  0  0  0  0  0  0  0  0
   -1.1015   -1.4146   -0.9738 H   0  0  0  0  0  0  0  0  0  0  0  0
    2.2764    0.0782    0.0784 Br  0  0  0  0  0 15  0  0  0  0  0  0
   -2.7710    1.1392   -0.3763 C   0  0  0  0  0  0  0  0  0  0  0  0
   -2.8756    1.2541   -1.4821 H   0  0  0  0  0  0  0  0  0  0  0  0
   -2.9742    2.0060    0.2119 H   0  0  0  0  0  0  0  0  0  0  0  0
   -3.6242   -0.0140    0.2626 C   0  0  0  0  0  0  0  0  0  0  0  0
   -4.7204   -0.1947   -0.2259 H   0  0  0  0  0  0  0  0  0  0  0  0
   -3.6709   -0.3245    1.3909 H   0  0  0  0  0  0  0  0  0  0  0  0
   -2.9607   -1.2200   -0.0938 O   0  0  0  0  0  0  0  0  0  0  0  0
  1  3  1  0  0  0  0
  2  1  1  0  0  0  0
  4  1  1  0  0  0  0
  4 14  1  0  0  0  0
  4  5  1  0  0  0  0
  6  4  1  0  0  0  0
  8  1  1  0  0  0  0
  8 10  1  0  0  0  0
  8 11  1  0  0  0  0
  9  8  1  0  0  0  0
 11 13  1  0  0  0  0
 12 11  1  0  0  0  0
 14 11  1  0  0  0  0
M  END
$$$$
Title Card Required
 OpenBabel07152211483D

 14 13  0  0  0  0  0  0  0  0999 V2000
   -1.4485    0.6205   -0.0920 C   0  0  0  0  0  0  0  0  0  0  0  0
   -0.7438    0.9952   -0.7522 H   0  0  0  0  0  0  0  0  0  0  0  0
   -1.2762    1.0235    0.9049 H   0  0  0  0  0  0  0  0  0  0  0  0
   -1.6318   -0.8164   -0.1556 C   0  0  0  0  0  0  0  0  0  0  0  0
   -0.8828   -1.1718    0.5631 H   0  0  0  0  0  0  0  0  0  0  0  0
   -1.0831   -1.4046   -0.9609 H   0  0  0  0  0  0  0  0  0  0  0  0
    2.2826    0.0794    0.0787 Br  0  0  0  0  0 15  0  0  0  0  0  0
   -2.7701    1.1306   -0.3806 C   0  0  0  0  0  0  0  0  0  0  0  0
   -2.8442    1.2711   -1.5374 H   0  0  0  0  0  0  0  0  0  0  0  0
   -2.9705    2.0262    0.1895 H   0  0  0  0  0  0  0  0  0  0  0  0
   -3.6493    0.0056    0.2741 C   0  0  0  0  0  0  0  0  0  0  0  0
   -4.7918   -0.1693   -0.2308 H   0  0  0  0  0  0  0  0  0  0  0  0
   -3.6469   -0.3255    1.3892 H   0  0  0  0  0  0  0  0  0  0  0  0
   -2.9858   -1.2388   -0.0951 O   0  0  0  0  0  0  0  0  0  0  0  0
  1  3  1  0  0  0  0
  2  1  1  0  0  0  0
  4 14  1  0  0  0  0
  4  1  1  0  0  0  0
  4  5  1  0  0  0  0
  6  4  1  0  0  0  0
  8  1  1  0  0  0  0
  8 10  1  0  0  0  0
  8 11  1  0  0  0  0
  9  8  1  0  0  0  0
 11 13  1  0  0  0  0
 12 11  1  0  0  0  0
 14 11  1  0  0  0  0
M  END
$$$$
Title Card Required
 OpenBabel07152211483D

 14 13  0  0  0  0  0  0  0  0999 V2000
   -1.4441    0.6325   -0.0716 C   0  0  0  0  0  0  0  0  0  0  0  0
   -0.7962    1.0026   -0.8160 H   0  0  0  0  0  0  0  0  0  0  0  0
   -1.2731    1.0042    0.9131 H   0  0  0  0  0  0  0  0  0  0  0  0
   -1.6115   -0.8323   -0.1750 C   0  0  0  0  0  0  0  0  0  0  0  0
   -0.8691   -1.1574    0.6053 H   0  0  0  0  0  0  0  0  0  0  0  0
   -1.0758   -1.3802   -0.9534 H   0  0  0  0  0  0  0  0  0  0  0  0
    2.2888    0.0806    0.0789 Br  0  0  0  0  0 15  0  0  0  0  0  0
   -2.7724    1.1222   -0.3859 C   0  0  0  0  0  0  0  0  0  0  0  0
   -2.8236    1.2841   -1.5703 H   0  0  0  0  0  0  0  0  0  0  0  0
   -2.9695    2.0583    0.1629 H   0  0  0  0  0  0  0  0  0  0  0  0
   -3.6777    0.0218    0.2841 C   0  0  0  0  0  0  0  0  0  0  0  0
   -4.8297   -0.1315   -0.2156 H   0  0  0  0  0  0  0  0  0  0  0  0
   -3.6290   -0.2940    1.3766 H   0  0  0  0  0  0  0  0  0  0  0  0
   -3.0104   -1.2566   -0.0967 O   0  0  0  0  0  0  0  0  0  0  0  0
  1  3  1  0  0  0  0
  2  1  1  0  0  0  0
  4 14  1  0  0  0  0
  4  1  1  0  0  0  0
  4  5  1  0  0  0  0
  6  4  1  0  0  0  0
  8  1  1  0  0  0  0
  8 10  1  0  0  0  0
  8 11  1  0  0  0  0
  9  8  1  0  0  0  0
 11 13  1  0  0  0  0
 12 11  1  0  0  0  0
 14 11  1  0  0  0  0
M  END
$$$$
Title Card Required
 OpenBabel07152211483D

 14 13  0  0  0  0  0  0  0  0999 V2000
   -1.4403    0.6444   -0.0521 C   0  0  0  0  0  0  0  0  0  0  0  0
   -0.8272    1.0163   -0.8835 H   0  0  0  0  0  0  0  0  0  0  0  0
   -1.2557    0.9838    0.9330 H   0  0  0  0  0  0  0  0  0  0  0  0
   -1.5896   -0.8510   -0.1929 C   0  0  0  0  0  0  0  0  0  0  0  0
   -0.8702   -1.1511    0.6538 H   0  0  0  0  0  0  0  0  0  0  0  0
   -1.0741   -1.3503   -0.9604 H   0  0  0  0  0  0  0  0  0  0  0  0
    2.2949    0.0818    0.0792 Br  0  0  0  0  0 15  0  0  0  0  0  0
   -2.7778    1.1149   -0.3920 C   0  0  0  0  0  0  0  0  0  0  0  0
   -2.8142    1.2899   -1.5734 H   0  0  0  0  0  0  0  0  0  0  0  0
   -2.9698    2.0937    0.1295 H   0  0  0  0  0  0  0  0  0  0  0  0
   -3.7077    0.0342    0.2916 C   0  0  0  0  0  0  0  0  0  0  0  0
   -4.8321   -0.0841   -0.1802 H   0  0  0  0  0  0  0  0  0  0  0  0
   -3.6188   -0.2336    1.3592 H   0  0  0  0  0  0  0  0  0  0  0  0
   -3.0335   -1.2725   -0.0988 O   0  0  0  0  0  0  0  0  0  0  0  0
  1  3  1  0  0  0  0
  2  1  1  0  0  0  0
  4 14  1  0  0  0  0
  4  1  1  0  0  0  0
  4  5  1  0  0  0  0
  6  4  1  0  0  0  0
  8  1  1  0  0  0  0
  8 10  1  0  0  0  0
  8 11  1  0  0  0  0
  9  8  1  0  0  0  0
 11 13  1  0  0  0  0
 12 11  1  0  0  0  0
 14 11  1  0  0  0  0
M  END
$$$$
Title Card Required
 OpenBabel07152211483D

 14 13  0  0  0  0  0  0  0  0999 V2000
   -1.4367    0.6558   -0.0356 C   0  0  0  0  0  0  0  0  0  0  0  0
   -0.8453    1.0311   -0.9385 H   0  0  0  0  0  0  0  0  0  0  0  0
   -1.2243    0.9656    0.9651 H   0  0  0  0  0  0  0  0  0  0  0  0
   -1.5678   -0.8705   -0.2070 C   0  0  0  0  0  0  0  0  0  0  0  0
   -0.8885   -1.1523    0.6979 H   0  0  0  0  0  0  0  0  0  0  0  0
   -1.0698   -1.3250   -0.9913 H   0  0  0  0  0  0  0  0  0  0  0  0
    2.3009    0.0830    0.0795 Br  0  0  0  0  0 15  0  0  0  0  0  0
   -2.7861    1.1093   -0.3980 C   0  0  0  0  0  0  0  0  0  0  0  0
   -2.8157    1.2867   -1.5486 H   0  0  0  0  0  0  0  0  0  0  0  0
   -2.9708    2.1246    0.0882 H   0  0  0  0  0  0  0  0  0  0  0  0
   -3.7380    0.0433    0.2957 C   0  0  0  0  0  0  0  0  0  0  0  0
   -4.8054   -0.0309   -0.1283 H   0  0  0  0  0  0  0  0  0  0  0  0
   -3.6161   -0.1513    1.3463 H   0  0  0  0  0  0  0  0  0  0  0  0
   -3.0546   -1.2862   -0.1012 O   0  0  0  0  0  0  0  0  0  0  0  0
  1  3  1  0  0  0  0
  2  1  1  0  0  0  0
  4 14  1  0  0  0  0
  4  1  1  0  0  0  0
  4  5  1  0  0  0  0
  6  4  1  0  0  0  0
  8  1  1  0  0  0  0
  8 10  1  0  0  0  0
  8 11  1  0  0  0  0
  9  8  1  0  0  0  0
 11 13  1  0  0  0  0
 12 11  1  0  0  0  0
 14 11  1  0  0  0  0
M  END
$$$$
Title Card Required
 OpenBabel07152211483D

 14 13  0  0  0  0  0  0  0  0999 V2000
   -1.4331    0.6662   -0.0230 C   0  0  0  0  0  0  0  0  0  0  0  0
   -0.8566    1.0436   -0.9689 H   0  0  0  0  0  0  0  0  0  0  0  0
   -1.1815    0.9499    1.0032 H   0  0  0  0  0  0  0  0  0  0  0  0
   -1.5473   -0.8897   -0.2163 C   0  0  0  0  0  0  0  0  0  0  0  0
   -0.9233   -1.1615    0.7296 H   0  0  0  0  0  0  0  0  0  0  0  0
   -1.0594   -1.3088   -1.0480 H   0  0  0  0  0  0  0  0  0  0  0  0
    2.3067    0.0841    0.0797 Br  0  0  0  0  0 15  0  0  0  0  0  0
   -2.7969    1.1057   -0.4033 C   0  0  0  0  0  0  0  0  0  0  0  0
   -2.8272    1.2745   -1.5046 H   0  0  0  0  0  0  0  0  0  0  0  0
   -2.9722    2.1462    0.0398 H   0  0  0  0  0  0  0  0  0  0  0  0
   -3.7666    0.0495    0.2962 C   0  0  0  0  0  0  0  0  0  0  0  0
   -4.7652    0.0244   -0.0674 H   0  0  0  0  0  0  0  0  0  0  0  0
   -3.6193   -0.0537    1.3458 H   0  0  0  0  0  0  0  0  0  0  0  0
   -3.0739   -1.2976   -0.1037 O   0  0  0  0  0  0  0  0  0  0  0  0
  1  3  1  0  0  0  0
  2  1  1  0  0  0  0
  4 14  1  0  0  0  0
  4  1  1  0  0  0  0
  4  5  1  0  0  0  0
  6  4  1  0  0  0  0
  8  1  1  0  0  0  0
  8 10  1  0  0  0  0
  8 11  1  0  0  0  0
  9  8  1  0  0  0  0
 11 13  1  0  0  0  0
 12 11  1  0  0  0  0
 14 11  1  0  0  0  0
M  END
$$$$
Title Card Required
 OpenBabel07152211483D

 14 13  0  0  0  0  0  0  0  0999 V2000
   -1.4292    0.6757   -0.0141 C   0  0  0  0  0  0  0  0  0  0  0  0
   -0.8636    1.0527   -0.9692 H   0  0  0  0  0  0  0  0  0  0  0  0
   -1.1301    0.9353    1.0381 H   0  0  0  0  0  0  0  0  0  0  0  0
   -1.5277   -0.9085   -0.2210 C   0  0  0  0  0  0  0  0  0  0  0  0
   -0.9727   -1.1803    0.7448 H   0  0  0  0  0  0  0  0  0  0  0  0
   -1.0456   -1.2992   -1.1233 H   0  0  0  0  0  0  0  0  0  0  0  0
    2.3126    0.0852    0.0800 Br  0  0  0  0  0 15  0  0  0  0  0  0
   -2.8102    1.1036   -0.4067 C   0  0  0  0  0  0  0  0  0  0  0  0
   -2.8483    1.2535   -1.4554 H   0  0  0  0  0  0  0  0  0  0  0  0
   -2.9747    2.1575   -0.0147 H   0  0  0  0  0  0  0  0  0  0  0  0
   -3.7917    0.0538    0.2937 C   0  0  0  0  0  0  0  0  0  0  0  0
   -4.7392    0.0795   -0.0079 H   0  0  0  0  0  0  0  0  0  0  0  0
   -3.6273    0.0571    1.3602 H   0  0  0  0  0  0  0  0  0  0  0  0
   -3.0920   -1.3068   -0.1065 O   0  0  0  0  0  0  0  0  0  0  0  0
  1  3  1  0  0  0  0
  2  1  1  0  0  0  0
  4 14  1  0  0  0  0
  4  1  1  0  0  0  0
  4  5  1  0  0  0  0
  6  4  1  0  0  0  0
  8 10  1  0  0  0  0
  8  1  1  0  0  0  0
  8 11  1  0  0  0  0
  9  8  1  0  0  0  0
 11 13  1  0  0  0  0
 12 11  1  0  0  0  0
 14 11  1  0  0  0  0
M  END
$$$$
Title Card Required
 OpenBabel07152211483D

 14 13  0  0  0  0  0  0  0  0999 V2000
   -1.4251    0.6843   -0.0082 C   0  0  0  0  0  0  0  0  0  0  0  0
   -0.8658    1.0588   -0.9364 H   0  0  0  0  0  0  0  0  0  0  0  0
   -1.0735    0.9205    1.0592 H   0  0  0  0  0  0  0  0  0  0  0  0
   -1.5089   -0.9271   -0.2225 C   0  0  0  0  0  0  0  0  0  0  0  0
   -1.0338   -1.2122    0.7425 H   0  0  0  0  0  0  0  0  0  0  0  0
   -1.0358   -1.2907   -1.2020 H   0  0  0  0  0  0  0  0  0  0  0  0
    2.3187    0.0864    0.0802 Br  0  0  0  0  0 15  0  0  0  0  0  0
   -2.8261    1.1027   -0.4064 C   0  0  0  0  0  0  0  0  0  0  0  0
   -2.8791    1.2236   -1.4225 H   0  0  0  0  0  0  0  0  0  0  0  0
   -2.9799    2.1592   -0.0731 H   0  0  0  0  0  0  0  0  0  0  0  0
   -3.8099    0.0563    0.2898 C   0  0  0  0  0  0  0  0  0  0  0  0
   -4.7641    0.1344    0.0381 H   0  0  0  0  0  0  0  0  0  0  0  0
   -3.6404    0.1798    1.3837 H   0  0  0  0  0  0  0  0  0  0  0  0
   -3.1094   -1.3138   -0.1094 O   0  0  0  0  0  0  0  0  0  0  0  0
  1  3  1  0  0  0  0
  2  1  1  0  0  0  0
  4 14  1  0  0  0  0
  4  1  1  0  0  0  0
  4  5  1  0  0  0  0
  6  4  1  0  0  0  0
  8 10  1  0  0  0  0
  8  1  1  0  0  0  0
  8 11  1  0  0  0  0
  9  8  1  0  0  0  0
 11 13  1  0  0  0  0
 12 11  1  0  0  0  0
 14 11  1  0  0  0  0
M  END
$$$$
Title Card Required
 OpenBabel07152211483D

 14 13  0  0  0  0  0  0  0  0999 V2000
   -1.4210    0.6909   -0.0049 C   0  0  0  0  0  0  0  0  0  0  0  0
   -0.8597    1.0635   -0.8758 H   0  0  0  0  0  0  0  0  0  0  0  0
   -1.0191    0.9058    1.0574 H   0  0  0  0  0  0  0  0  0  0  0  0
   -1.4923   -0.9441   -0.2225 C   0  0  0  0  0  0  0  0  0  0  0  0
   -1.0964   -1.2596    0.7274 H   0  0  0  0  0  0  0  0  0  0  0  0
   -1.0373   -1.2794   -1.2623 H   0  0  0  0  0  0  0  0  0  0  0  0
    2.3249    0.0876    0.0805 Br  0  0  0  0  0 15  0  0  0  0  0  0
   -2.8434    1.1023   -0.4012 C   0  0  0  0  0  0  0  0  0  0  0  0
   -2.9176    1.1862   -1.4280 H   0  0  0  0  0  0  0  0  0  0  0  0
   -2.9895    2.1556   -0.1283 H   0  0  0  0  0  0  0  0  0  0  0  0
   -3.8191    0.0573    0.2857 C   0  0  0  0  0  0  0  0  0  0  0  0
   -4.8468    0.1858    0.0657 H   0  0  0  0  0  0  0  0  0  0  0  0
   -3.6588    0.3024    1.4030 H   0  0  0  0  0  0  0  0  0  0  0  0
   -3.1257   -1.3178   -0.1120 O   0  0  0  0  0  0  0  0  0  0  0  0
  1  3  1  0  0  0  0
  2  1  1  0  0  0  0
  4 14  1  0  0  0  0
  4  1  1  0  0  0  0
  4  5  1  0  0  0  0
  6  4  1  0  0  0  0
  8 10  1  0  0  0  0
  8  1  1  0  0  0  0
  8 11  1  0  0  0  0
  9  8  1  0  0  0  0
 11 13  1  0  0  0  0
 12 11  1  0  0  0  0
 14 11  1  0  0  0  0
M  END
$$$$
Title Card Required
 OpenBabel07152211483D

 14 13  0  0  0  0  0  0  0  0999 V2000
   -1.4176    0.6949   -0.0031 C   0  0  0  0  0  0  0  0  0  0  0  0
   -0.8391    1.0711   -0.8010 H   0  0  0  0  0  0  0  0  0  0  0  0
   -0.9715    0.8918    1.0312 H   0  0  0  0  0  0  0  0  0  0  0  0
   -1.4785   -0.9590   -0.2231 C   0  0  0  0  0  0  0  0  0  0  0  0
   -1.1519   -1.3264    0.7104 H   0  0  0  0  0  0  0  0  0  0  0  0
   -1.0530   -1.2643   -1.2917 H   0  0  0  0  0  0  0  0  0  0  0  0
    2.3311    0.0888    0.0808 Br  0  0  0  0  0 15  0  0  0  0  0  0
   -2.8618    1.1017   -0.3918 C   0  0  0  0  0  0  0  0  0  0  0  0
   -2.9609    1.1392   -1.4697 H   0  0  0  0  0  0  0  0  0  0  0  0
   -3.0057    2.1535   -0.1755 H   0  0  0  0  0  0  0  0  0  0  0  0
   -3.8223    0.0577    0.2818 C   0  0  0  0  0  0  0  0  0  0  0  0
   -4.9508    0.2297    0.0829 H   0  0  0  0  0  0  0  0  0  0  0  0
   -3.6828    0.4151    1.4069 H   0  0  0  0  0  0  0  0  0  0  0  0
   -3.1412   -1.3185   -0.1143 O   0  0  0  0  0  0  0  0  0  0  0  0
  1  3  1  0  0  0  0
  2  1  1  0  0  0  0
  4 14  1  0  0  0  0
  4  1  1  0  0  0  0
  4  5  1  0  0  0  0
  6  4  1  0  0  0  0
  8 10  1  0  0  0  0
  8  1  1  0  0  0  0
  8 11  1  0  0  0  0
  9  8  1  0  0  0  0
 11 13  1  0  0  0  0
 12 11  1  0  0  0  0
 14 11  1  0  0  0  0
M  END
$$$$
Title Card Required
 OpenBabel07152211483D

 14 13  0  0  0  0  0  0  0  0999 V2000
   -1.4159    0.6950   -0.0013 C   0  0  0  0  0  0  0  0  0  0  0  0
   -0.7924    1.0890   -0.7286 H   0  0  0  0  0  0  0  0  0  0  0  0
   -0.9328    0.8789    0.9835 H   0  0  0  0  0  0  0  0  0  0  0  0
   -1.4679   -0.9713   -0.2257 C   0  0  0  0  0  0  0  0  0  0  0  0
   -1.1957   -1.4194    0.6997 H   0  0  0  0  0  0  0  0  0  0  0  0
   -1.0842   -1.2461   -1.2842 H   0  0  0  0  0  0  0  0  0  0  0  0
    2.3377    0.0901    0.0810 Br  0  0  0  0  0 15  0  0  0  0  0  0
   -2.8816    1.1003   -0.3806 C   0  0  0  0  0  0  0  0  0  0  0  0
   -3.0063    1.0789   -1.5254 H   0  0  0  0  0  0  0  0  0  0  0  0
   -3.0315    2.1592   -0.2130 H   0  0  0  0  0  0  0  0  0  0  0  0
   -3.8228    0.0585    0.2783 C   0  0  0  0  0  0  0  0  0  0  0  0
   -5.0371    0.2605    0.0967 H   0  0  0  0  0  0  0  0  0  0  0  0
   -3.7132    0.5107    1.3879 H   0  0  0  0  0  0  0  0  0  0  0  0
   -3.1567   -1.3155   -0.1161 O   0  0  0  0  0  0  0  0  0  0  0  0
  1  3  1  0  0  0  0
  2  1  1  0  0  0  0
  4 14  1  0  0  0  0
  4  1  1  0  0  0  0
  4  5  1  0  0  0  0
  6  4  1  0  0  0  0
  8 10  1  0  0  0  0
  8  1  1  0  0  0  0
  8 11  1  0  0  0  0
  9  8  1  0  0  0  0
 11 13  1  0  0  0  0
 12 11  1  0  0  0  0
 14 11  1  0  0  0  0
M  END
$$$$
Title Card Required
 OpenBabel07152211483D

 14 13  0  0  0  0  0  0  0  0999 V2000
   -1.4170    0.6895    0.0004 C   0  0  0  0  0  0  0  0  0  0  0  0
   -0.7124    1.1216   -0.6749 H   0  0  0  0  0  0  0  0  0  0  0  0
   -0.9049    0.8693    0.9289 H   0  0  0  0  0  0  0  0  0  0  0  0
   -1.4620   -0.9798   -0.2296 C   0  0  0  0  0  0  0  0  0  0  0  0
   -1.2246   -1.5371    0.6912 H   0  0  0  0  0  0  0  0  0  0  0  0
   -1.1287   -1.2293   -1.2421 H   0  0  0  0  0  0  0  0  0  0  0  0
    2.3448    0.0915    0.0814 Br  0  0  0  0  0 15  0  0  0  0  0  0
   -2.9024    1.0976   -0.3707 C   0  0  0  0  0  0  0  0  0  0  0  0
   -3.0474    1.0062   -1.5648 H   0  0  0  0  0  0  0  0  0  0  0  0
   -3.0691    2.1736   -0.2383 H   0  0  0  0  0  0  0  0  0  0  0  0
   -3.8228    0.0608    0.2755 C   0  0  0  0  0  0  0  0  0  0  0  0
   -5.0748    0.2708    0.1076 H   0  0  0  0  0  0  0  0  0  0  0  0
   -3.7493    0.5745    1.3436 H   0  0  0  0  0  0  0  0  0  0  0  0
   -3.1722   -1.3076   -0.1171 O   0  0  0  0  0  0  0  0  0  0  0  0
  1  3  1  0  0  0  0
  2  1  1  0  0  0  0
  4 14  1  0  0  0  0
  4  1  1  0  0  0  0
  4  5  1  0  0  0  0
  6  4  1  0  0  0  0
  8 10  1  0  0  0  0
  8  1  1  0  0  0  0
  8 11  1  0  0  0  0
  9  8  1  0  0  0  0
 11 13  1  0  0  0  0
 12 11  1  0  0  0  0
 14 11  1  0  0  0  0
M  END
$$$$
Title Card Required
 OpenBabel07152211483D

 14 13  0  0  0  0  0  0  0  0999 V2000
   -1.4207    0.6780   -0.0004 C   0  0  0  0  0  0  0  0  0  0  0  0
   -0.6154    1.1593   -0.6384 H   0  0  0  0  0  0  0  0  0  0  0  0
   -0.8866    0.8661    0.8951 H   0  0  0  0  0  0  0  0  0  0  0  0
   -1.4623   -0.9839   -0.2308 C   0  0  0  0  0  0  0  0  0  0  0  0
   -1.2394   -1.6618    0.6657 H   0  0  0  0  0  0  0  0  0  0  0  0
   -1.1766   -1.2235   -1.1931 H   0  0  0  0  0  0  0  0  0  0  0  0
    2.3522    0.0930    0.0817 Br  0  0  0  0  0 15  0  0  0  0  0  0
   -2.9232    1.0935   -0.3655 C   0  0  0  0  0  0  0  0  0  0  0  0
   -3.0769    0.9287   -1.5628 H   0  0  0  0  0  0  0  0  0  0  0  0
   -3.1171    2.1885   -0.2509 H   0  0  0  0  0  0  0  0  0  0  0  0
   -3.8234    0.0648    0.2735 C   0  0  0  0  0  0  0  0  0  0  0  0
   -5.0463    0.2546    0.1120 H   0  0  0  0  0  0  0  0  0  0  0  0
   -3.7876    0.5926    1.2833 H   0  0  0  0  0  0  0  0  0  0  0  0
   -3.1876   -1.2940   -0.1170 O   0  0  0  0  0  0  0  0  0  0  0  0
  1  3  1  0  0  0  0
  2  1  1  0  0  0  0
  4 14  1  0  0  0  0
  4  1  1  0  0  0  0
  4  5  1  0  0  0  0
  6  4  1  0  0  0  0
  8 10  1  0  0  0  0
  8  1  1  0  0  0  0
  8 11  1  0  0  0  0
  9  8  1  0  0  0  0
 11 13  1  0  0  0  0
 12 11  1  0  0  0  0
 14 11  1  0  0  0  0
M  END
$$$$
Title Card Required
 OpenBabel07152211483D

 14 13  0  0  0  0  0  0  0  0999 V2000
   -1.4251    0.6623   -0.0060 C   0  0  0  0  0  0  0  0  0  0  0  0
   -0.5380    1.1810   -0.6074 H   0  0  0  0  0  0  0  0  0  0  0  0
   -0.8787    0.8698    0.9018 H   0  0  0  0  0  0  0  0  0  0  0  0
   -1.4704   -0.9838   -0.2245 C   0  0  0  0  0  0  0  0  0  0  0  0
   -1.2423   -1.7642    0.6090 H   0  0  0  0  0  0  0  0  0  0  0  0
   -1.2128   -1.2392   -1.1845 H   0  0  0  0  0  0  0  0  0  0  0  0
    2.3596    0.0945    0.0820 Br  0  0  0  0  0 15  0  0  0  0  0  0
   -2.9418    1.0891   -0.3667 C   0  0  0  0  0  0  0  0  0  0  0  0
   -3.0896    0.8596   -1.5137 H   0  0  0  0  0  0  0  0  0  0  0  0
   -3.1684    2.1902   -0.2522 H   0  0  0  0  0  0  0  0  0  0  0  0
   -3.8251    0.0695    0.2717 C   0  0  0  0  0  0  0  0  0  0  0  0
   -4.9576    0.2125    0.1042 H   0  0  0  0  0  0  0  0  0  0  0  0
   -3.8213    0.5637    1.2341 H   0  0  0  0  0  0  0  0  0  0  0  0
   -3.2017   -1.2752   -0.1157 O   0  0  0  0  0  0  0  0  0  0  0  0
  1  3  1  0  0  0  0
  2  1  1  0  0  0  0
  4 14  1  0  0  0  0
  4  1  1  0  0  0  0
  4  5  1  0  0  0  0
  6  4  1  0  0  0  0
  8 10  1  0  0  0  0
  8  1  1  0  0  0  0
  8 11  1  0  0  0  0
  9  8  1  0  0  0  0
 11 13  1  0  0  0  0
 12 11  1  0  0  0  0
 14 11  1  0  0  0  0
M  END
$$$$
Title Card Required
 OpenBabel07152211483D

 14 13  0  0  0  0  0  0  0  0999 V2000
   -1.4278    0.6456   -0.0145 C   0  0  0  0  0  0  0  0  0  0  0  0
   -0.5023    1.1761   -0.5776 H   0  0  0  0  0  0  0  0  0  0  0  0
   -0.8876    0.8757    0.9356 H   0  0  0  0  0  0  0  0  0  0  0  0
   -1.4846   -0.9810   -0.2121 C   0  0  0  0  0  0  0  0  0  0  0  0
   -1.2368   -1.8257    0.5317 H   0  0  0  0  0  0  0  0  0  0  0  0
   -1.2356   -1.2707   -1.2191 H   0  0  0  0  0  0  0  0  0  0  0  0
    2.3663    0.0959    0.0823 Br  0  0  0  0  0 15  0  0  0  0  0  0
   -2.9564    1.0849   -0.3728 C   0  0  0  0  0  0  0  0  0  0  0  0
   -3.0878    0.8091   -1.4412 H   0  0  0  0  0  0  0  0  0  0  0  0
   -3.2136    2.1746   -0.2464 H   0  0  0  0  0  0  0  0  0  0  0  0
   -3.8262    0.0727    0.2690 C   0  0  0  0  0  0  0  0  0  0  0  0
   -4.8531    0.1565    0.0801 H   0  0  0  0  0  0  0  0  0  0  0  0
   -3.8442    0.5074    1.2266 H   0  0  0  0  0  0  0  0  0  0  0  0
   -3.2134   -1.2538   -0.1132 O   0  0  0  0  0  0  0  0  0  0  0  0
  1  3  1  0  0  0  0
  2  1  1  0  0  0  0
  4 14  1  0  0  0  0
  4  1  1  0  0  0  0
  4  5  1  0  0  0  0
  6  4  1  0  0  0  0
  8 10  1  0  0  0  0
  8  1  1  0  0  0  0
  8 11  1  0  0  0  0
  9  8  1  0  0  0  0
 11 13  1  0  0  0  0
 12 11  1  0  0  0  0
 14 11  1  0  0  0  0
M  END
$$$$
Title Card Required
 OpenBabel07152211483D

 14 13  0  0  0  0  0  0  0  0999 V2000
   -1.4284    0.6285   -0.0236 C   0  0  0  0  0  0  0  0  0  0  0  0
   -0.5039    1.1469   -0.5493 H   0  0  0  0  0  0  0  0  0  0  0  0
   -0.9191    0.8788    0.9759 H   0  0  0  0  0  0  0  0  0  0  0  0
   -1.5036   -0.9772   -0.1982 C   0  0  0  0  0  0  0  0  0  0  0  0
   -1.2250   -1.8532    0.4463 H   0  0  0  0  0  0  0  0  0  0  0  0
   -1.2564   -1.3044   -1.2627 H   0  0  0  0  0  0  0  0  0  0  0  0
    2.3727    0.0972    0.0825 Br  0  0  0  0  0 15  0  0  0  0  0  0
   -2.9673    1.0812   -0.3812 C   0  0  0  0  0  0  0  0  0  0  0  0
   -3.0776    0.7720   -1.3742 H   0  0  0  0  0  0  0  0  0  0  0  0
   -3.2524    2.1459   -0.2373 H   0  0  0  0  0  0  0  0  0  0  0  0
   -3.8235    0.0735    0.2655 C   0  0  0  0  0  0  0  0  0  0  0  0
   -4.7831    0.0945    0.0322 H   0  0  0  0  0  0  0  0  0  0  0  0
   -3.8580    0.4362    1.2670 H   0  0  0  0  0  0  0  0  0  0  0  0
   -3.2230   -1.2301   -0.1099 O   0  0  0  0  0  0  0  0  0  0  0  0
  1  3  1  0  0  0  0
  2  1  1  0  0  0  0
  4 14  1  0  0  0  0
  4  1  1  0  0  0  0
  4  5  1  0  0  0  0
  6  4  1  0  0  0  0
  8 10  1  0  0  0  0
  8  1  1  0  0  0  0
  8 11  1  0  0  0  0
  9  8  1  0  0  0  0
 11 13  1  0  0  0  0
 12 11  1  0  0  0  0
 14 11  1  0  0  0  0
M  END
$$$$
Title Card Required
 OpenBabel07152211483D

 14 13  0  0  0  0  0  0  0  0999 V2000
   -1.4271    0.6119   -0.0313 C   0  0  0  0  0  0  0  0  0  0  0  0
   -0.5338    1.0993   -0.5266 H   0  0  0  0  0  0  0  0  0  0  0  0
   -0.9736    0.8762    1.0089 H   0  0  0  0  0  0  0  0  0  0  0  0
   -1.5262   -0.9732   -0.1866 C   0  0  0  0  0  0  0  0  0  0  0  0
   -1.2070   -1.8563    0.3685 H   0  0  0  0  0  0  0  0  0  0  0  0
   -1.2820   -1.3283   -1.2885 H   0  0  0  0  0  0  0  0  0  0  0  0
    2.3787    0.0984    0.0828 Br  0  0  0  0  0 15  0  0  0  0  0  0
   -2.9745    1.0779   -0.3886 C   0  0  0  0  0  0  0  0  0  0  0  0
   -3.0652    0.7416   -1.3449 H   0  0  0  0  0  0  0  0  0  0  0  0
   -3.2840    2.1127   -0.2274 H   0  0  0  0  0  0  0  0  0  0  0  0
   -3.8147    0.0719    0.2631 C   0  0  0  0  0  0  0  0  0  0  0  0
   -4.7820    0.0323   -0.0426 H   0  0  0  0  0  0  0  0  0  0  0  0
   -3.8653    0.3545    1.3377 H   0  0  0  0  0  0  0  0  0  0  0  0
   -3.2303   -1.2053   -0.1058 O   0  0  0  0  0  0  0  0  0  0  0  0
  1  3  1  0  0  0  0
  2  1  1  0  0  0  0
  4 14  1  0  0  0  0
  4  1  1  0  0  0  0
  4  5  1  0  0  0  0
  6  4  1  0  0  0  0
  8 10  1  0  0  0  0
  8  1  1  0  0  0  0
  8 11  1  0  0  0  0
  9  8  1  0  0  0  0
 11 13  1  0  0  0  0
 12 11  1  0  0  0  0
 14 11  1  0  0  0  0
M  END
$$$$
Title Card Required
 OpenBabel07152211483D

 14 13  0  0  0  0  0  0  0  0999 V2000
   -1.4255    0.5960   -0.0363 C   0  0  0  0  0  0  0  0  0  0  0  0
   -0.5751    1.0444   -0.5153 H   0  0  0  0  0  0  0  0  0  0  0  0
   -1.0448    0.8674    1.0287 H   0  0  0  0  0  0  0  0  0  0  0  0
   -1.5513   -0.9692   -0.1794 C   0  0  0  0  0  0  0  0  0  0  0  0
   -1.1829   -1.8476    0.3108 H   0  0  0  0  0  0  0  0  0  0  0  0
   -1.3135   -1.3375   -1.2893 H   0  0  0  0  0  0  0  0  0  0  0  0
    2.3842    0.0996    0.0830 Br  0  0  0  0  0 15  0  0  0  0  0  0
   -2.9778    1.0751   -0.3935 C   0  0  0  0  0  0  0  0  0  0  0  0
   -3.0546    0.7141   -1.3636 H   0  0  0  0  0  0  0  0  0  0  0  0
   -3.3089    2.0846   -0.2182 H   0  0  0  0  0  0  0  0  0  0  0  0
   -3.8029    0.0684    0.2629 C   0  0  0  0  0  0  0  0  0  0  0  0
   -4.8242   -0.0250   -0.1303 H   0  0  0  0  0  0  0  0  0  0  0  0
   -3.8693    0.2672    1.4088 H   0  0  0  0  0  0  0  0  0  0  0  0
   -3.2349   -1.1808   -0.1014 O   0  0  0  0  0  0  0  0  0  0  0  0
  1  3  1  0  0  0  0
  2  1  1  0  0  0  0
  4 14  1  0  0  0  0
  4  1  1  0  0  0  0
  4  5  1  0  0  0  0
  6  4  1  0  0  0  0
  8 10  1  0  0  0  0
  8  1  1  0  0  0  0
  8 11  1  0  0  0  0
  9  8  1  0  0  0  0
 11 13  1  0  0  0  0
 12 11  1  0  0  0  0
 14 11  1  0  0  0  0
M  END
$$$$
Title Card Required
 OpenBabel07152211483D

 14 13  0  0  0  0  0  0  0  0999 V2000
   -1.4252    0.5798   -0.0381 C   0  0  0  0  0  0  0  0  0  0  0  0
   -0.6110    0.9908   -0.5216 H   0  0  0  0  0  0  0  0  0  0  0  0
   -1.1295    0.8527    1.0357 H   0  0  0  0  0  0  0  0  0  0  0  0
   -1.5795   -0.9648   -0.1764 C   0  0  0  0  0  0  0  0  0  0  0  0
   -1.1514   -1.8352    0.2755 H   0  0  0  0  0  0  0  0  0  0  0  0
   -1.3520   -1.3320   -1.2685 H   0  0  0  0  0  0  0  0  0  0  0  0
    2.3895    0.1008    0.0832 Br  0  0  0  0  0 15  0  0  0  0  0  0
   -2.9778    1.0718   -0.3971 C   0  0  0  0  0  0  0  0  0  0  0  0
   -3.0462    0.6915   -1.4150 H   0  0  0  0  0  0  0  0  0  0  0  0
   -3.3293    2.0666   -0.2100 H   0  0  0  0  0  0  0  0  0  0  0  0
   -3.7914    0.0630    0.2648 C   0  0  0  0  0  0  0  0  0  0  0  0
   -4.8704   -0.0753   -0.2158 H   0  0  0  0  0  0  0  0  0  0  0  0
   -3.8719    0.1754    1.4635 H   0  0  0  0  0  0  0  0  0  0  0  0
   -3.2371   -1.1565   -0.0967 O   0  0  0  0  0  0  0  0  0  0  0  0
  1  3  1  0  0  0  0
  2  1  1  0  0  0  0
  4 14  1  0  0  0  0
  4  1  1  0  0  0  0
  4  5  1  0  0  0  0
  6  4  1  0  0  0  0
  8 10  1  0  0  0  0
  8  1  1  0  0  0  0
  8 11  1  0  0  0  0
  9  8  1  0  0  0  0
 11 13  1  0  0  0  0
 12 11  1  0  0  0  0
 14 11  1  0  0  0  0
M  END
$$$$
Title Card Required
 OpenBabel07152211483D

 14 13  0  0  0  0  0  0  0  0999 V2000
   -1.4280    0.5623   -0.0362 C   0  0  0  0  0  0  0  0  0  0  0  0
   -0.6266    0.9456   -0.5521 H   0  0  0  0  0  0  0  0  0  0  0  0
   -1.2244    0.8329    1.0320 H   0  0  0  0  0  0  0  0  0  0  0  0
   -1.6117   -0.9600   -0.1772 C   0  0  0  0  0  0  0  0  0  0  0  0
   -1.1130   -1.8201    0.2633 H   0  0  0  0  0  0  0  0  0  0  0  0
   -1.3982   -1.3122   -1.2318 H   0  0  0  0  0  0  0  0  0  0  0  0
    2.3949    0.1020    0.0835 Br  0  0  0  0  0 15  0  0  0  0  0  0
   -2.9747    1.0674   -0.4010 C   0  0  0  0  0  0  0  0  0  0  0  0
   -3.0399    0.6803   -1.4776 H   0  0  0  0  0  0  0  0  0  0  0  0
   -3.3456    2.0610   -0.2029 H   0  0  0  0  0  0  0  0  0  0  0  0
   -3.7825    0.0553    0.2686 C   0  0  0  0  0  0  0  0  0  0  0  0
   -4.8983   -0.1148   -0.2874 H   0  0  0  0  0  0  0  0  0  0  0  0
   -3.8744    0.0823    1.4927 H   0  0  0  0  0  0  0  0  0  0  0  0
   -3.2365   -1.1323   -0.0916 O   0  0  0  0  0  0  0  0  0  0  0  0
  1  3  1  0  0  0  0
  2  1  1  0  0  0  0
  4 14  1  0  0  0  0
  4  1  1  0  0  0  0
  4  5  1  0  0  0  0
  6  4  1  0  0  0  0
  8 10  1  0  0  0  0
  8  1  1  0  0  0  0
  8 11  1  0  0  0  0
  9  8  1  0  0  0  0
 11 13  1  0  0  0  0
 12 11  1  0  0  0  0
 14 11  1  0  0  0  0
M  END
$$$$
Title Card Required
 OpenBabel07152211483D

 14 13  0  0  0  0  0  0  0  0999 V2000
   -1.4348    0.5436   -0.0310 C   0  0  0  0  0  0  0  0  0  0  0  0
   -0.6183    0.9113   -0.6051 H   0  0  0  0  0  0  0  0  0  0  0  0
   -1.3219    0.8102    1.0222 H   0  0  0  0  0  0  0  0  0  0  0  0
   -1.6476   -0.9553   -0.1810 C   0  0  0  0  0  0  0  0  0  0  0  0
   -1.0729   -1.7977    0.2728 H   0  0  0  0  0  0  0  0  0  0  0  0
   -1.4504   -1.2809   -1.1907 H   0  0  0  0  0  0  0  0  0  0  0  0
    2.4003    0.1031    0.0837 Br  0  0  0  0  0 15  0  0  0  0  0  0
   -2.9687    1.0617   -0.4067 C   0  0  0  0  0  0  0  0  0  0  0  0
   -3.0359    0.6863   -1.5308 H   0  0  0  0  0  0  0  0  0  0  0  0
   -3.3557    2.0661   -0.1982 H   0  0  0  0  0  0  0  0  0  0  0  0
   -3.7774    0.0454    0.2739 C   0  0  0  0  0  0  0  0  0  0  0  0
   -4.8988   -0.1393   -0.3357 H   0  0  0  0  0  0  0  0  0  0  0  0
   -3.8775   -0.0045    1.4911 H   0  0  0  0  0  0  0  0  0  0  0  0
   -3.2325   -1.1094   -0.0864 O   0  0  0  0  0  0  0  0  0  0  0  0
  1  3  1  0  0  0  0
  2  1  1  0  0  0  0
  4 14  1  0  0  0  0
  4  1  1  0  0  0  0
  4  5  1  0  0  0  0
  6  4  1  0  0  0  0
  8 10  1  0  0  0  0
  8  1  1  0  0  0  0
  8 11  1  0  0  0  0
  9  8  1  0  0  0  0
 11 13  1  0  0  0  0
 12 11  1  0  0  0  0
 14 11  1  0  0  0  0
M  END
$$$$
Title Card Required
 OpenBabel07152211483D

 14 13  0  0  0  0  0  0  0  0999 V2000
   -1.4450    0.5247   -0.0243 C   0  0  0  0  0  0  0  0  0  0  0  0
   -0.5988    0.8826   -0.6669 H   0  0  0  0  0  0  0  0  0  0  0  0
   -1.4142    0.7881    1.0149 H   0  0  0  0  0  0  0  0  0  0  0  0
   -1.6866   -0.9512   -0.1858 C   0  0  0  0  0  0  0  0  0  0  0  0
   -1.0391   -1.7617    0.2993 H   0  0  0  0  0  0  0  0  0  0  0  0
   -1.5048   -1.2445   -1.1640 H   0  0  0  0  0  0  0  0  0  0  0  0
    2.4058    0.1043    0.0839 Br  0  0  0  0  0 15  0  0  0  0  0  0
   -2.9603    1.0551   -0.4146 C   0  0  0  0  0  0  0  0  0  0  0  0
   -3.0349    0.7118   -1.5619 H   0  0  0  0  0  0  0  0  0  0  0  0
   -3.3561    2.0760   -0.1974 H   0  0  0  0  0  0  0  0  0  0  0  0
   -3.7769    0.0339    0.2802 C   0  0  0  0  0  0  0  0  0  0  0  0
   -4.8706   -0.1464   -0.3551 H   0  0  0  0  0  0  0  0  0  0  0  0
   -3.8825   -0.0774    1.4596 H   0  0  0  0  0  0  0  0  0  0  0  0
   -3.2247   -1.0892   -0.0816 O   0  0  0  0  0  0  0  0  0  0  0  0
  1  3  1  0  0  0  0
  2  1  1  0  0  0  0
  4 14  1  0  0  0  0
  4  1  1  0  0  0  0
  4  5  1  0  0  0  0
  6  4  1  0  0  0  0
  8 10  1  0  0  0  0
  8  1  1  0  0  0  0
  8 11  1  0  0  0  0
  9  8  1  0  0  0  0
 11 13  1  0  0  0  0
 12 11  1  0  0  0  0
 14 11  1  0  0  0  0
M  END
$$$$
Title Card Required
 OpenBabel07152211483D

 14 13  0  0  0  0  0  0  0  0999 V2000
   -1.4576    0.5067   -0.0182 C   0  0  0  0  0  0  0  0  0  0  0  0
   -0.5851    0.8530   -0.7184 H   0  0  0  0  0  0  0  0  0  0  0  0
   -1.4941    0.7696    1.0184 H   0  0  0  0  0  0  0  0  0  0  0  0
   -1.7276   -0.9479   -0.1896 C   0  0  0  0  0  0  0  0  0  0  0  0
   -1.0200   -1.7080    0.3360 H   0  0  0  0  0  0  0  0  0  0  0  0
   -1.5562   -1.2112   -1.1702 H   0  0  0  0  0  0  0  0  0  0  0  0
    2.4112    0.1055    0.0841 Br  0  0  0  0  0 15  0  0  0  0  0  0
   -2.9502    1.0484   -0.4247 C   0  0  0  0  0  0  0  0  0  0  0  0
   -3.0373    0.7549   -1.5655 H   0  0  0  0  0  0  0  0  0  0  0  0
   -3.3435    2.0840   -0.2016 H   0  0  0  0  0  0  0  0  0  0  0  0
   -3.7813    0.0221    0.2868 C   0  0  0  0  0  0  0  0  0  0  0  0
   -4.8174   -0.1352   -0.3437 H   0  0  0  0  0  0  0  0  0  0  0  0
   -3.8910   -0.1293    1.4067 H   0  0  0  0  0  0  0  0  0  0  0  0
   -3.2129   -1.0734   -0.0774 O   0  0  0  0  0  0  0  0  0  0  0  0
  1  3  1  0  0  0  0
  2  1  1  0  0  0  0
  4 14  1  0  0  0  0
  4  1  1  0  0  0  0
  4  5  1  0  0  0  0
  6  4  1  0  0  0  0
  8 10  1  0  0  0  0
  8  1  1  0  0  0  0
  8 11  1  0  0  0  0
  9  8  1  0  0  0  0
 11 13  1  0  0  0  0
 12 11  1  0  0  0  0
 14 11  1  0  0  0  0
M  END
$$$$
Title Card Required
 OpenBabel07152211483D

 14 13  0  0  0  0  0  0  0  0999 V2000
   -1.4713    0.4911   -0.0143 C   0  0  0  0  0  0  0  0  0  0  0  0
   -0.5876    0.8202   -0.7453 H   0  0  0  0  0  0  0  0  0  0  0  0
   -1.5552    0.7563    1.0341 H   0  0  0  0  0  0  0  0  0  0  0  0
   -1.7684   -0.9457   -0.1918 C   0  0  0  0  0  0  0  0  0  0  0  0
   -1.0215   -1.6394    0.3750 H   0  0  0  0  0  0  0  0  0  0  0  0
   -1.6001   -1.1856   -1.2107 H   0  0  0  0  0  0  0  0  0  0  0  0
    2.4165    0.1067    0.0843 Br  0  0  0  0  0 15  0  0  0  0  0  0
   -2.9394    1.0424   -0.4358 C   0  0  0  0  0  0  0  0  0  0  0  0
   -3.0430    0.8094   -1.5453 H   0  0  0  0  0  0  0  0  0  0  0  0
   -3.3171    2.0856   -0.2105 H   0  0  0  0  0  0  0  0  0  0  0  0
   -3.7901    0.0119    0.2924 C   0  0  0  0  0  0  0  0  0  0  0  0
   -4.7501   -0.1082   -0.3058 H   0  0  0  0  0  0  0  0  0  0  0  0
   -3.9048   -0.1560    1.3507 H   0  0  0  0  0  0  0  0  0  0  0  0
   -3.1975   -1.0635   -0.0742 O   0  0  0  0  0  0  0  0  0  0  0  0
  1  3  1  0  0  0  0
  2  1  1  0  0  0  0
  4 14  1  0  0  0  0
  4  1  1  0  0  0  0
  4  5  1  0  0  0  0
  6  4  1  0  0  0  0
  8 10  1  0  0  0  0
  8  1  1  0  0  0  0
  8 11  1  0  0  0  0
  9  8  1  0  0  0  0
 11 13  1  0  0  0  0
 12 11  1  0  0  0  0
 14 11  1  0  0  0  0
M  END
$$$$
Title Card Required
 OpenBabel07152211483D

 14 13  0  0  0  0  0  0  0  0999 V2000
   -1.4861    0.4782   -0.0125 C   0  0  0  0  0  0  0  0  0  0  0  0
   -0.6076    0.7839   -0.7435 H   0  0  0  0  0  0  0  0  0  0  0  0
   -1.5963    0.7467    1.0564 H   0  0  0  0  0  0  0  0  0  0  0  0
   -1.8078   -0.9447   -0.1936 C   0  0  0  0  0  0  0  0  0  0  0  0
   -1.0444   -1.5613    0.4117 H   0  0  0  0  0  0  0  0  0  0  0  0
   -1.6363   -1.1667   -1.2686 H   0  0  0  0  0  0  0  0  0  0  0  0
    2.4217    0.1079    0.0844 Br  0  0  0  0  0 15  0  0  0  0  0  0
   -2.9282    1.0378   -0.4468 C   0  0  0  0  0  0  0  0  0  0  0  0
   -3.0525    0.8687   -1.5131 H   0  0  0  0  0  0  0  0  0  0  0  0
   -3.2776    2.0805   -0.2227 H   0  0  0  0  0  0  0  0  0  0  0  0
   -3.8016    0.0042    0.2961 C   0  0  0  0  0  0  0  0  0  0  0  0
   -4.6867   -0.0700   -0.2527 H   0  0  0  0  0  0  0  0  0  0  0  0
   -3.9258   -0.1591    1.3130 H   0  0  0  0  0  0  0  0  0  0  0  0
   -3.1792   -1.0598   -0.0721 O   0  0  0  0  0  0  0  0  0  0  0  0
  1  3  1  0  0  0  0
  2  1  1  0  0  0  0
  4 14  1  0  0  0  0
  4  1  1  0  0  0  0
  4  5  1  0  0  0  0
  6  4  1  0  0  0  0
  8 10  1  0  0  0  0
  8  1  1  0  0  0  0
  8 11  1  0  0  0  0
  9  8  1  0  0  0  0
 11 13  1  0  0  0  0
 12 11  1  0  0  0  0
 14 11  1  0  0  0  0
M  END
$$$$
Title Card Required
 OpenBabel07152211483D

 14 13  0  0  0  0  0  0  0  0999 V2000
   -1.5028    0.4680   -0.0122 C   0  0  0  0  0  0  0  0  0  0  0  0
   -0.6436    0.7444   -0.7125 H   0  0  0  0  0  0  0  0  0  0  0  0
   -1.6174    0.7381    1.0780 H   0  0  0  0  0  0  0  0  0  0  0  0
   -1.8460   -0.9449   -0.1968 C   0  0  0  0  0  0  0  0  0  0  0  0
   -1.0883   -1.4781    0.4452 H   0  0  0  0  0  0  0  0  0  0  0  0
   -1.6666   -1.1519   -1.3256 H   0  0  0  0  0  0  0  0  0  0  0  0
    2.4270    0.1090    0.0846 Br  0  0  0  0  0 15  0  0  0  0  0  0
   -2.9162    1.0345   -0.4564 C   0  0  0  0  0  0  0  0  0  0  0  0
   -3.0674    0.9286   -1.4855 H   0  0  0  0  0  0  0  0  0  0  0  0
   -3.2247    2.0713   -0.2359 H   0  0  0  0  0  0  0  0  0  0  0  0
   -3.8135   -0.0004    0.2977 C   0  0  0  0  0  0  0  0  0  0  0  0
   -4.6555   -0.0243   -0.2025 H   0  0  0  0  0  0  0  0  0  0  0  0
   -3.9561   -0.1403    1.3114 H   0  0  0  0  0  0  0  0  0  0  0  0
   -3.1585   -1.0623   -0.0706 O   0  0  0  0  0  0  0  0  0  0  0  0
  1  3  1  0  0  0  0
  2  1  1  0  0  0  0
  4 14  1  0  0  0  0
  4  1  1  0  0  0  0
  4  5  1  0  0  0  0
  6  4  1  0  0  0  0
  8 10  1  0  0  0  0
  8  1  1  0  0  0  0
  8 11  1  0  0  0  0
  9  8  1  0  0  0  0
 11 13  1  0  0  0  0
 12 11  1  0  0  0  0
 14 11  1  0  0  0  0
M  END
$$$$
Title Card Required
 OpenBabel07152211483D

 14 13  0  0  0  0  0  0  0  0999 V2000
   -1.5222    0.4609   -0.0127 C   0  0  0  0  0  0  0  0  0  0  0  0
   -0.6870    0.7059   -0.6566 H   0  0  0  0  0  0  0  0  0  0  0  0
   -1.6163    0.7284    1.0908 H   0  0  0  0  0  0  0  0  0  0  0  0
   -1.8806   -0.9460   -0.2032 C   0  0  0  0  0  0  0  0  0  0  0  0
   -1.1482   -1.4012    0.4753 H   0  0  0  0  0  0  0  0  0  0  0  0
   -1.6895   -1.1409   -1.3646 H   0  0  0  0  0  0  0  0  0  0  0  0
    2.4325    0.1103    0.0848 Br  0  0  0  0  0 15  0  0  0  0  0  0
   -2.9035    1.0328   -0.4626 C   0  0  0  0  0  0  0  0  0  0  0  0
   -3.0894    0.9823   -1.4833 H   0  0  0  0  0  0  0  0  0  0  0  0
   -3.1610    2.0637   -0.2462 H   0  0  0  0  0  0  0  0  0  0  0  0
   -3.8221   -0.0014    0.2983 C   0  0  0  0  0  0  0  0  0  0  0  0
   -4.6922    0.0239   -0.1790 H   0  0  0  0  0  0  0  0  0  0  0  0
   -3.9941   -0.1000    1.3508 H   0  0  0  0  0  0  0  0  0  0  0  0
   -3.1380   -1.0712   -0.0692 O   0  0  0  0  0  0  0  0  0  0  0  0
  1  3  1  0  0  0  0
  2  1  1  0  0  0  0
  4 14  1  0  0  0  0
  4  1  1  0  0  0  0
  4  5  1  0  0  0  0
  6  4  1  0  0  0  0
  8 10  1  0  0  0  0
  8  1  1  0  0  0  0
  8 11  1  0  0  0  0
  9  8  1  0  0  0  0
 11 13  1  0  0  0  0
 12 11  1  0  0  0  0
 14 11  1  0  0  0  0
M  END
$$$$
Title Card Required
 OpenBabel07152211483D

 14 13  0  0  0  0  0  0  0  0999 V2000
   -1.5444    0.4571   -0.0128 C   0  0  0  0  0  0  0  0  0  0  0  0
   -0.7182    0.6761   -0.5923 H   0  0  0  0  0  0  0  0  0  0  0  0
   -1.5948    0.7165    1.0899 H   0  0  0  0  0  0  0  0  0  0  0  0
   -1.9073   -0.9470   -0.2137 C   0  0  0  0  0  0  0  0  0  0  0  0
   -1.2118   -1.3456    0.5035 H   0  0  0  0  0  0  0  0  0  0  0  0
   -1.7028   -1.1349   -1.3762 H   0  0  0  0  0  0  0  0  0  0  0  0
    2.4379    0.1114    0.0850 Br  0  0  0  0  0 15  0  0  0  0  0  0
   -2.8910    1.0325   -0.4647 C   0  0  0  0  0  0  0  0  0  0  0  0
   -3.1170    1.0246   -1.5121 H   0  0  0  0  0  0  0  0  0  0  0  0
   -3.0929    2.0654   -0.2485 H   0  0  0  0  0  0  0  0  0  0  0  0
   -3.8271    0.0006    0.2984 C   0  0  0  0  0  0  0  0  0  0  0  0
   -4.7872    0.0689   -0.1820 H   0  0  0  0  0  0  0  0  0  0  0  0
   -4.0319   -0.0421    1.4098 H   0  0  0  0  0  0  0  0  0  0  0  0
   -3.1222   -1.0853   -0.0672 O   0  0  0  0  0  0  0  0  0  0  0  0
  1  3  1  0  0  0  0
  2  1  1  0  0  0  0
  4 14  1  0  0  0  0
  4  1  1  0  0  0  0
  4  5  1  0  0  0  0
  6  4  1  0  0  0  0
  8 10  1  0  0  0  0
  8  1  1  0  0  0  0
  8 11  1  0  0  0  0
  9  8  1  0  0  0  0
 11 13  1  0  0  0  0
 12 11  1  0  0  0  0
 14 11  1  0  0  0  0
M  END
$$$$
Title Card Required
 OpenBabel07152211483D

 14 13  0  0  0  0  0  0  0  0999 V2000
   -1.5713    0.4559   -0.0117 C   0  0  0  0  0  0  0  0  0  0  0  0
   -0.7174    0.6604   -0.5341 H   0  0  0  0  0  0  0  0  0  0  0  0
   -1.5559    0.7016    1.0760 H   0  0  0  0  0  0  0  0  0  0  0  0
   -1.9241   -0.9473   -0.2293 C   0  0  0  0  0  0  0  0  0  0  0  0
   -1.2708   -1.3183    0.5344 H   0  0  0  0  0  0  0  0  0  0  0  0
   -1.7057   -1.1348   -1.3596 H   0  0  0  0  0  0  0  0  0  0  0  0
    2.4433    0.1127    0.0851 Br  0  0  0  0  0 15  0  0  0  0  0  0
   -2.8787    1.0336   -0.4643 C   0  0  0  0  0  0  0  0  0  0  0  0
   -3.1467    1.0562   -1.5576 H   0  0  0  0  0  0  0  0  0  0  0  0
   -3.0214    2.0802   -0.2400 H   0  0  0  0  0  0  0  0  0  0  0  0
   -3.8318    0.0053    0.2979 C   0  0  0  0  0  0  0  0  0  0  0  0
   -4.8998    0.1081   -0.1915 H   0  0  0  0  0  0  0  0  0  0  0  0
   -4.0634    0.0317    1.4633 H   0  0  0  0  0  0  0  0  0  0  0  0
   -3.1143   -1.1044   -0.0634 O   0  0  0  0  0  0  0  0  0  0  0  0
  1  3  1  0  0  0  0
  2  1  1  0  0  0  0
  4 14  1  0  0  0  0
  4  1  1  0  0  0  0
  4  5  1  0  0  0  0
  6  4  1  0  0  0  0
  8 10  1  0  0  0  0
  8  1  1  0  0  0  0
  8 11  1  0  0  0  0
  9  8  1  0  0  0  0
 11 13  1  0  0  0  0
 12 11  1  0  0  0  0
 14 11  1  0  0  0  0
M  END
$$$$
Title Card Required
 OpenBabel07152211483D

 14 13  0  0  0  0  0  0  0  0999 V2000
   -1.6023    0.4570   -0.0094 C   0  0  0  0  0  0  0  0  0  0  0  0
   -0.6769    0.6613   -0.4891 H   0  0  0  0  0  0  0  0  0  0  0  0
   -1.5050    0.6844    1.0547 H   0  0  0  0  0  0  0  0  0  0  0  0
   -1.9281   -0.9466   -0.2496 C   0  0  0  0  0  0  0  0  0  0  0  0
   -1.3181   -1.3248    0.5669 H   0  0  0  0  0  0  0  0  0  0  0  0
   -1.6958   -1.1428   -1.3196 H   0  0  0  0  0  0  0  0  0  0  0  0
    2.4490    0.1140    0.0853 Br  0  0  0  0  0 15  0  0  0  0  0  0
   -2.8681    1.0366   -0.4631 C   0  0  0  0  0  0  0  0  0  0  0  0
   -3.1708    1.0762   -1.5965 H   0  0  0  0  0  0  0  0  0  0  0  0
   -2.9491    2.1056   -0.2200 H   0  0  0  0  0  0  0  0  0  0  0  0
   -3.8391    0.0130    0.2965 C   0  0  0  0  0  0  0  0  0  0  0  0
   -4.9908    0.1359   -0.1914 H   0  0  0  0  0  0  0  0  0  0  0  0
   -4.0821    0.1156    1.4902 H   0  0  0  0  0  0  0  0  0  0  0  0
   -3.1179   -1.1280   -0.0572 O   0  0  0  0  0  0  0  0  0  0  0  0
  1  3  1  0  0  0  0
  2  1  1  0  0  0  0
  4 14  1  0  0  0  0
  4  1  1  0  0  0  0
  4  5  1  0  0  0  0
  6  4  1  0  0  0  0
  8 10  1  0  0  0  0
  8  1  1  0  0  0  0
  8 11  1  0  0  0  0
  9  8  1  0  0  0  0
 11 13  1  0  0  0  0
 12 11  1  0  0  0  0
 14 11  1  0  0  0  0
M  END
$$$$
Title Card Required
 OpenBabel07152211483D

 14 13  0  0  0  0  0  0  0  0999 V2000
   -1.6325    0.4599   -0.0076 C   0  0  0  0  0  0  0  0  0  0  0  0
   -0.6188    0.6743   -0.4529 H   0  0  0  0  0  0  0  0  0  0  0  0
   -1.4513    0.6674    1.0371 H   0  0  0  0  0  0  0  0  0  0  0  0
   -1.9193   -0.9451   -0.2712 C   0  0  0  0  0  0  0  0  0  0  0  0
   -1.3503   -1.3613    0.5914 H   0  0  0  0  0  0  0  0  0  0  0  0
   -1.6714   -1.1617   -1.2749 H   0  0  0  0  0  0  0  0  0  0  0  0
    2.4546    0.1152    0.0855 Br  0  0  0  0  0 15  0  0  0  0  0  0
   -2.8611    1.0426   -0.4624 C   0  0  0  0  0  0  0  0  0  0  0  0
   -3.1819    1.0838   -1.6100 H   0  0  0  0  0  0  0  0  0  0  0  0
   -2.8825    2.1311   -0.1922 H   0  0  0  0  0  0  0  0  0  0  0  0
   -3.8499    0.0233    0.2943 C   0  0  0  0  0  0  0  0  0  0  0  0
   -5.0364    0.1486   -0.1763 H   0  0  0  0  0  0  0  0  0  0  0  0
   -4.0835    0.1989    1.4789 H   0  0  0  0  0  0  0  0  0  0  0  0
   -3.1337   -1.1543   -0.0486 O   0  0  0  0  0  0  0  0  0  0  0  0
  1  3  1  0  0  0  0
  2  1  1  0  0  0  0
  4 14  1  0  0  0  0
  4  1  1  0  0  0  0
  4  5  1  0  0  0  0
  6  4  1  0  0  0  0
  8 10  1  0  0  0  0
  8  1  1  0  0  0  0
  8 11  1  0  0  0  0
  9  8  1  0  0  0  0
 11 13  1  0  0  0  0
 12 11  1  0  0  0  0
 14 11  1  0  0  0  0
M  END
$$$$
Title Card Required
 OpenBabel07152211483D

 14 13  0  0  0  0  0  0  0  0999 V2000
   -1.6569    0.4638   -0.0076 C   0  0  0  0  0  0  0  0  0  0  0  0
   -0.5734    0.6922   -0.4190 H   0  0  0  0  0  0  0  0  0  0  0  0
   -1.4034    0.6524    1.0303 H   0  0  0  0  0  0  0  0  0  0  0  0
   -1.9017   -0.9436   -0.2896 C   0  0  0  0  0  0  0  0  0  0  0  0
   -1.3692   -1.4156    0.5976 H   0  0  0  0  0  0  0  0  0  0  0  0
   -1.6323   -1.1936   -1.2509 H   0  0  0  0  0  0  0  0  0  0  0  0
    2.4599    0.1165    0.0856 Br  0  0  0  0  0 15  0  0  0  0  0  0
   -2.8588    1.0520   -0.4626 C   0  0  0  0  0  0  0  0  0  0  0  0
   -3.1773    1.0813   -1.5944 H   0  0  0  0  0  0  0  0  0  0  0  0
   -2.8274    2.1470   -0.1623 H   0  0  0  0  0  0  0  0  0  0  0  0
   -3.8632    0.0355    0.2912 C   0  0  0  0  0  0  0  0  0  0  0  0
   -5.0341    0.1469   -0.1486 H   0  0  0  0  0  0  0  0  0  0  0  0
   -4.0682    0.2721    1.4336 H   0  0  0  0  0  0  0  0  0  0  0  0
   -3.1585   -1.1807   -0.0385 O   0  0  0  0  0  0  0  0  0  0  0  0
  1  3  1  0  0  0  0
  2  1  1  0  0  0  0
  4 14  1  0  0  0  0
  4  1  1  0  0  0  0
  4  5  1  0  0  0  0
  6  4  1  0  0  0  0
  8 10  1  0  0  0  0
  8  1  1  0  0  0  0
  8 11  1  0  0  0  0
  9  8  1  0  0  0  0
 11 13  1  0  0  0  0
 12 11  1  0  0  0  0
 14 11  1  0  0  0  0
M  END
$$$$
Title Card Required
 OpenBabel07152211483D

 14 13  0  0  0  0  0  0  0  0999 V2000
   -1.6731    0.4680   -0.0090 C   0  0  0  0  0  0  0  0  0  0  0  0
   -0.5545    0.7106   -0.3872 H   0  0  0  0  0  0  0  0  0  0  0  0
   -1.3671    0.6397    1.0328 H   0  0  0  0  0  0  0  0  0  0  0  0
   -1.8806   -0.9430   -0.3020 C   0  0  0  0  0  0  0  0  0  0  0  0
   -1.3785   -1.4745    0.5820 H   0  0  0  0  0  0  0  0  0  0  0  0
   -1.5829   -1.2368   -1.2581 H   0  0  0  0  0  0  0  0  0  0  0  0
    2.4648    0.1176    0.0858 Br  0  0  0  0  0 15  0  0  0  0  0  0
   -2.8611    1.0642   -0.4634 C   0  0  0  0  0  0  0  0  0  0  0  0
   -3.1599    1.0725   -1.5583 H   0  0  0  0  0  0  0  0  0  0  0  0
   -2.7870    2.1506   -0.1347 H   0  0  0  0  0  0  0  0  0  0  0  0
   -3.8777    0.0485    0.2871 C   0  0  0  0  0  0  0  0  0  0  0  0
   -4.9947    0.1341   -0.1147 H   0  0  0  0  0  0  0  0  0  0  0  0
   -4.0408    0.3314    1.3696 H   0  0  0  0  0  0  0  0  0  0  0  0
   -3.1877   -1.2053   -0.0280 O   0  0  0  0  0  0  0  0  0  0  0  0
  1  3  1  0  0  0  0
  2  1  1  0  0  0  0
  4 14  1  0  0  0  0
  4  1  1  0  0  0  0
  4  5  1  0  0  0  0
  6  4  1  0  0  0  0
  8 10  1  0  0  0  0
  8  1  1  0  0  0  0
  8 11  1  0  0  0  0
  9  8  1  0  0  0  0
 11 13  1  0  0  0  0
 12 11  1  0  0  0  0
 14 11  1  0  0  0  0
M  END
$$$$
Title Card Required
 OpenBabel07152211483D

 14 13  0  0  0  0  0  0  0  0999 V2000
   -1.6816    0.4718   -0.0110 C   0  0  0  0  0  0  0  0  0  0  0  0
   -0.5614    0.7284   -0.3588 H   0  0  0  0  0  0  0  0  0  0  0  0
   -1.3441    0.6283    1.0396 H   0  0  0  0  0  0  0  0  0  0  0  0
   -1.8589   -0.9440   -0.3094 C   0  0  0  0  0  0  0  0  0  0  0  0
   -1.3808   -1.5311    0.5473 H   0  0  0  0  0  0  0  0  0  0  0  0
   -1.5298   -1.2860   -1.2855 H   0  0  0  0  0  0  0  0  0  0  0  0
    2.4694    0.1187    0.0859 Br  0  0  0  0  0 15  0  0  0  0  0  0
   -2.8669    1.0785   -0.4639 C   0  0  0  0  0  0  0  0  0  0  0  0
   -3.1345    1.0608   -1.5154 H   0  0  0  0  0  0  0  0  0  0  0  0
   -2.7607    2.1445   -0.1108 H   0  0  0  0  0  0  0  0  0  0  0  0
   -3.8921    0.0617    0.2817 C   0  0  0  0  0  0  0  0  0  0  0  0
   -4.9347    0.1143   -0.0807 H   0  0  0  0  0  0  0  0  0  0  0  0
   -4.0058    0.3792    1.3042 H   0  0  0  0  0  0  0  0  0  0  0  0
   -3.2184   -1.2277   -0.0177 O   0  0  0  0  0  0  0  0  0  0  0  0
  1  3  1  0  0  0  0
  2  1  1  0  0  0  0
  4 14  1  0  0  0  0
  4  1  1  0  0  0  0
  4  5  1  0  0  0  0
  6  4  1  0  0  0  0
  8 10  1  0  0  0  0
  8  1  1  0  0  0  0
  8 11  1  0  0  0  0
  9  8  1  0  0  0  0
 11 13  1  0  0  0  0
 12 11  1  0  0  0  0
 14 11  1  0  0  0  0
M  END
$$$$
Title Card Required
 OpenBabel07152211483D

 14 13  0  0  0  0  0  0  0  0999 V2000
   -1.6833    0.4753   -0.0132 C   0  0  0  0  0  0  0  0  0  0  0  0
   -0.5911    0.7467   -0.3347 H   0  0  0  0  0  0  0  0  0  0  0  0
   -1.3348    0.6168    1.0471 H   0  0  0  0  0  0  0  0  0  0  0  0
   -1.8369   -0.9475   -0.3135 C   0  0  0  0  0  0  0  0  0  0  0  0
   -1.3772   -1.5844    0.4962 H   0  0  0  0  0  0  0  0  0  0  0  0
   -1.4782   -1.3361   -1.3185 H   0  0  0  0  0  0  0  0  0  0  0  0
    2.4739    0.1197    0.0860 Br  0  0  0  0  0 15  0  0  0  0  0  0
   -2.8758    1.0946   -0.4630 C   0  0  0  0  0  0  0  0  0  0  0  0
   -3.1044    1.0480   -1.4791 H   0  0  0  0  0  0  0  0  0  0  0  0
   -2.7473    2.1326   -0.0898 H   0  0  0  0  0  0  0  0  0  0  0  0
   -3.9052    0.0751    0.2741 C   0  0  0  0  0  0  0  0  0  0  0  0
   -4.8735    0.0895   -0.0531 H   0  0  0  0  0  0  0  0  0  0  0  0
   -3.9646    0.4219    1.2520 H   0  0  0  0  0  0  0  0  0  0  0  0
   -3.2507   -1.2486   -0.0074 O   0  0  0  0  0  0  0  0  0  0  0  0
  1  3  1  0  0  0  0
  2  1  1  0  0  0  0
  4  1  1  0  0  0  0
  4 14  1  0  0  0  0
  4  5  1  0  0  0  0
  6  4  1  0  0  0  0
  8 10  1  0  0  0  0
  8  1  1  0  0  0  0
  8 11  1  0  0  0  0
  9  8  1  0  0  0  0
 11 13  1  0  0  0  0
 12 11  1  0  0  0  0
 14 11  1  0  0  0  0
M  END
$$$$
Title Card Required
 OpenBabel07152211483D

 14 13  0  0  0  0  0  0  0  0999 V2000
   -1.6786    0.4781   -0.0150 C   0  0  0  0  0  0  0  0  0  0  0  0
   -0.6404    0.7676   -0.3175 H   0  0  0  0  0  0  0  0  0  0  0  0
   -1.3414    0.6042    1.0536 H   0  0  0  0  0  0  0  0  0  0  0  0
   -1.8143   -0.9544   -0.3160 C   0  0  0  0  0  0  0  0  0  0  0  0
   -1.3668   -1.6351    0.4308 H   0  0  0  0  0  0  0  0  0  0  0  0
   -1.4329   -1.3820   -1.3453 H   0  0  0  0  0  0  0  0  0  0  0  0
    2.4785    0.1209    0.0862 Br  0  0  0  0  0 15  0  0  0  0  0  0
   -2.8877    1.1125   -0.4596 C   0  0  0  0  0  0  0  0  0  0  0  0
   -3.0721    1.0351   -1.4656 H   0  0  0  0  0  0  0  0  0  0  0  0
   -2.7476    2.1200   -0.0706 H   0  0  0  0  0  0  0  0  0  0  0  0
   -3.9147    0.0888    0.2639 C   0  0  0  0  0  0  0  0  0  0  0  0
   -4.8413    0.0603   -0.0423 H   0  0  0  0  0  0  0  0  0  0  0  0
   -3.9169    0.4649    1.2274 H   0  0  0  0  0  0  0  0  0  0  0  0
   -3.2853   -1.2685    0.0034 O   0  0  0  0  0  0  0  0  0  0  0  0
  1  3  1  0  0  0  0
  2  1  1  0  0  0  0
  4  1  1  0  0  0  0
  4 14  1  0  0  0  0
  4  5  1  0  0  0  0
  6  4  1  0  0  0  0
  8 10  1  0  0  0  0
  8  1  1  0  0  0  0
  8 11  1  0  0  0  0
  9  8  1  0  0  0  0
 11 13  1  0  0  0  0
 12 11  1  0  0  0  0
 14 11  1  0  0  0  0
M  END
$$$$
Title Card Required
 OpenBabel07152211483D

 14 13  0  0  0  0  0  0  0  0999 V2000
   -1.6686    0.4799   -0.0159 C   0  0  0  0  0  0  0  0  0  0  0  0
   -0.6968    0.7938   -0.3132 H   0  0  0  0  0  0  0  0  0  0  0  0
   -1.3651    0.5907    1.0587 H   0  0  0  0  0  0  0  0  0  0  0  0
   -1.7926   -0.9651   -0.3180 C   0  0  0  0  0  0  0  0  0  0  0  0
   -1.3480   -1.6816    0.3609 H   0  0  0  0  0  0  0  0  0  0  0  0
   -1.4015   -1.4153   -1.3562 H   0  0  0  0  0  0  0  0  0  0  0  0
    2.4833    0.1220    0.0863 Br  0  0  0  0  0 15  0  0  0  0  0  0
   -2.9018    1.1305   -0.4531 C   0  0  0  0  0  0  0  0  0  0  0  0
   -3.0405    1.0243   -1.4858 H   0  0  0  0  0  0  0  0  0  0  0  0
   -2.7627    2.1146   -0.0526 H   0  0  0  0  0  0  0  0  0  0  0  0
   -3.9178    0.1020    0.2517 C   0  0  0  0  0  0  0  0  0  0  0  0
   -4.8680    0.0283   -0.0574 H   0  0  0  0  0  0  0  0  0  0  0  0
   -3.8660    0.5068    1.2365 H   0  0  0  0  0  0  0  0  0  0  0  0
   -3.3202   -1.2863    0.0142 O   0  0  0  0  0  0  0  0  0  0  0  0
  1  3  1  0  0  0  0
  2  1  1  0  0  0  0
  4  1  1  0  0  0  0
  4 14  1  0  0  0  0
  4  5  1  0  0  0  0
  6  4  1  0  0  0  0
  8 10  1  0  0  0  0
  8  1  1  0  0  0  0
  8 11  1  0  0  0  0
  9  8  1  0  0  0  0
 11 13  1  0  0  0  0
 12 11  1  0  0  0  0
 14 11  1  0  0  0  0
M  END
$$$$
Title Card Required
 OpenBabel07152211483D

 14 13  0  0  0  0  0  0  0  0999 V2000
   -1.6560    0.4800   -0.0155 C   0  0  0  0  0  0  0  0  0  0  0  0
   -0.7399    0.8290   -0.3271 H   0  0  0  0  0  0  0  0  0  0  0  0
   -1.4032    0.5767    1.0631 H   0  0  0  0  0  0  0  0  0  0  0  0
   -1.7732   -0.9789   -0.3204 C   0  0  0  0  0  0  0  0  0  0  0  0
   -1.3203   -1.7246    0.2986 H   0  0  0  0  0  0  0  0  0  0  0  0
   -1.3879   -1.4310   -1.3493 H   0  0  0  0  0  0  0  0  0  0  0  0
    2.4879    0.1232    0.0864 Br  0  0  0  0  0 15  0  0  0  0  0  0
   -2.9170    1.1464   -0.4450 C   0  0  0  0  0  0  0  0  0  0  0  0
   -3.0099    1.0189   -1.5291 H   0  0  0  0  0  0  0  0  0  0  0  0
   -2.7914    2.1228   -0.0350 H   0  0  0  0  0  0  0  0  0  0  0  0
   -3.9155    0.1143    0.2390 C   0  0  0  0  0  0  0  0  0  0  0  0
   -4.9389   -0.0026   -0.0903 H   0  0  0  0  0  0  0  0  0  0  0  0
   -3.8176    0.5405    1.2662 H   0  0  0  0  0  0  0  0  0  0  0  0
   -3.3534   -1.3009    0.0244 O   0  0  0  0  0  0  0  0  0  0  0  0
  1  3  1  0  0  0  0
  2  1  1  0  0  0  0
  4  1  1  0  0  0  0
  4 14  1  0  0  0  0
  4  5  1  0  0  0  0
  6  4  1  0  0  0  0
  8 10  1  0  0  0  0
  8  1  1  0  0  0  0
  8 11  1  0  0  0  0
  9  8  1  0  0  0  0
 11 13  1  0  0  0  0
 12 11  1  0  0  0  0
 14 11  1  0  0  0  0
M  END
$$$$
Title Card Required
 OpenBabel07152211483D

 14 13  0  0  0  0  0  0  0  0999 V2000
   -1.6428    0.4782   -0.0135 C   0  0  0  0  0  0  0  0  0  0  0  0
   -0.7564    0.8788   -0.3626 H   0  0  0  0  0  0  0  0  0  0  0  0
   -1.4529    0.5624    1.0688 H   0  0  0  0  0  0  0  0  0  0  0  0
   -1.7560   -0.9954   -0.3238 C   0  0  0  0  0  0  0  0  0  0  0  0
   -1.2826   -1.7674    0.2499 H   0  0  0  0  0  0  0  0  0  0  0  0
   -1.3924   -1.4288   -1.3283 H   0  0  0  0  0  0  0  0  0  0  0  0
    2.4925    0.1243    0.0866 Br  0  0  0  0  0 15  0  0  0  0  0  0
   -2.9330    1.1596   -0.4370 C   0  0  0  0  0  0  0  0  0  0  0  0
   -2.9786    1.0223   -1.5762 H   0  0  0  0  0  0  0  0  0  0  0  0
   -2.8332    2.1464   -0.0170 H   0  0  0  0  0  0  0  0  0  0  0  0
   -3.9110    0.1261    0.2259 C   0  0  0  0  0  0  0  0  0  0  0  0
   -5.0184   -0.0281   -0.1269 H   0  0  0  0  0  0  0  0  0  0  0  0
   -3.7756    0.5601    1.2991 H   0  0  0  0  0  0  0  0  0  0  0  0
   -3.3855   -1.3126    0.0343 O   0  0  0  0  0  0  0  0  0  0  0  0
  1  3  1  0  0  0  0
  2  1  1  0  0  0  0
  4  1  1  0  0  0  0
  4 14  1  0  0  0  0
  4  5  1  0  0  0  0
  6  4  1  0  0  0  0
  8 10  1  0  0  0  0
  8  1  1  0  0  0  0
  8 11  1  0  0  0  0
  9  8  1  0  0  0  0
 11 13  1  0  0  0  0
 12 11  1  0  0  0  0
 14 11  1  0  0  0  0
M  END
$$$$
Title Card Required
 OpenBabel07152211483D

 14 13  0  0  0  0  0  0  0  0999 V2000
   -1.6292    0.4744   -0.0100 C   0  0  0  0  0  0  0  0  0  0  0  0
   -0.7462    0.9434   -0.4187 H   0  0  0  0  0  0  0  0  0  0  0  0
   -1.5116    0.5479    1.0771 H   0  0  0  0  0  0  0  0  0  0  0  0
   -1.7408   -1.0149   -0.3280 C   0  0  0  0  0  0  0  0  0  0  0  0
   -1.2351   -1.8099    0.2180 H   0  0  0  0  0  0  0  0  0  0  0  0
   -1.4154   -1.4090   -1.3011 H   0  0  0  0  0  0  0  0  0  0  0  0
    2.4974    0.1256    0.0867 Br  0  0  0  0  0 15  0  0  0  0  0  0
   -2.9499    1.1699   -0.4306 C   0  0  0  0  0  0  0  0  0  0  0  0
   -2.9466    1.0384   -1.6098 H   0  0  0  0  0  0  0  0  0  0  0  0
   -2.8895    2.1819   -0.0002 H   0  0  0  0  0  0  0  0  0  0  0  0
   -3.9065    0.1372    0.2125 C   0  0  0  0  0  0  0  0  0  0  0  0
   -5.0783   -0.0425   -0.1564 H   0  0  0  0  0  0  0  0  0  0  0  0
   -3.7442    0.5598    1.3218 H   0  0  0  0  0  0  0  0  0  0  0  0
   -3.4170   -1.3213    0.0441 O   0  0  0  0  0  0  0  0  0  0  0  0
  1  3  1  0  0  0  0
  2  1  1  0  0  0  0
  4  1  1  0  0  0  0
  4 14  1  0  0  0  0
  4  5  1  0  0  0  0
  6  4  1  0  0  0  0
  8  1  1  0  0  0  0
  8 10  1  0  0  0  0
  8 11  1  0  0  0  0
  9  8  1  0  0  0  0
 11 13  1  0  0  0  0
 12 11  1  0  0  0  0
 14 11  1  0  0  0  0
M  END
$$$$
Title Card Required
 OpenBabel07152211483D

 14 13  0  0  0  0  0  0  0  0999 V2000
   -1.6145    0.4691   -0.0058 C   0  0  0  0  0  0  0  0  0  0  0  0
   -0.7251    1.0134   -0.4854 H   0  0  0  0  0  0  0  0  0  0  0  0
   -1.5752    0.5342    1.0890 H   0  0  0  0  0  0  0  0  0  0  0  0
   -1.7281   -1.0373   -0.3316 C   0  0  0  0  0  0  0  0  0  0  0  0
   -1.1808   -1.8469    0.2046 H   0  0  0  0  0  0  0  0  0  0  0  0
   -1.4559   -1.3750   -1.2862 H   0  0  0  0  0  0  0  0  0  0  0  0
    2.5027    0.1269    0.0868 Br  0  0  0  0  0 15  0  0  0  0  0  0
   -2.9670    1.1773   -0.4268 C   0  0  0  0  0  0  0  0  0  0  0  0
   -2.9166    1.0711   -1.6153 H   0  0  0  0  0  0  0  0  0  0  0  0
   -2.9620    2.2193    0.0112 H   0  0  0  0  0  0  0  0  0  0  0  0
   -3.9036    0.1470    0.1993 C   0  0  0  0  0  0  0  0  0  0  0  0
   -5.0990   -0.0396   -0.1715 H   0  0  0  0  0  0  0  0  0  0  0  0
   -3.7292    0.5341    1.3234 H   0  0  0  0  0  0  0  0  0  0  0  0
   -3.4480   -1.3263    0.0538 O   0  0  0  0  0  0  0  0  0  0  0  0
  1  3  1  0  0  0  0
  2  1  1  0  0  0  0
  4  1  1  0  0  0  0
  4 14  1  0  0  0  0
  4  5  1  0  0  0  0
  6  4  1  0  0  0  0
  8  1  1  0  0  0  0
  8 10  1  0  0  0  0
  8 11  1  0  0  0  0
  9  8  1  0  0  0  0
 11 13  1  0  0  0  0
 12 11  1  0  0  0  0
 14 11  1  0  0  0  0
M  END
$$$$
Title Card Required
 OpenBabel07152211483D

 14 13  0  0  0  0  0  0  0  0999 V2000
   -1.5981    0.4636   -0.0019 C   0  0  0  0  0  0  0  0  0  0  0  0
   -0.7158    1.0689   -0.5426 H   0  0  0  0  0  0  0  0  0  0  0  0
   -1.6343    0.5233    1.1023 H   0  0  0  0  0  0  0  0  0  0  0  0
   -1.7188   -1.0615   -0.3318 C   0  0  0  0  0  0  0  0  0  0  0  0
   -1.1284   -1.8673    0.2074 H   0  0  0  0  0  0  0  0  0  0  0  0
   -1.5097   -1.3358   -1.3118 H   0  0  0  0  0  0  0  0  0  0  0  0
    2.5082    0.1283    0.0870 Br  0  0  0  0  0 15  0  0  0  0  0  0
   -2.9828    1.1817   -0.4264 C   0  0  0  0  0  0  0  0  0  0  0  0
   -2.8944    1.1212   -1.5839 H   0  0  0  0  0  0  0  0  0  0  0  0
   -3.0471    2.2427    0.0112 H   0  0  0  0  0  0  0  0  0  0  0  0
   -3.9038    0.1542    0.1871 C   0  0  0  0  0  0  0  0  0  0  0  0
   -5.0669   -0.0139   -0.1668 H   0  0  0  0  0  0  0  0  0  0  0  0
   -3.7369    0.4813    1.2967 H   0  0  0  0  0  0  0  0  0  0  0  0
   -3.4770   -1.3268    0.0630 O   0  0  0  0  0  0  0  0  0  0  0  0
  1  3  1  0  0  0  0
  2  1  1  0  0  0  0
  4  1  1  0  0  0  0
  4 14  1  0  0  0  0
  4  5  1  0  0  0  0
  6  4  1  0  0  0  0
  8  1  1  0  0  0  0
  8 10  1  0  0  0  0
  8 11  1  0  0  0  0
  9  8  1  0  0  0  0
 11 13  1  0  0  0  0
 12 11  1  0  0  0  0
 14 11  1  0  0  0  0
M  END
$$$$
Title Card Required
 OpenBabel07152211483D

 14 13  0  0  0  0  0  0  0  0999 V2000
   -1.5820    0.4594    0.0007 C   0  0  0  0  0  0  0  0  0  0  0  0
   -0.7296    1.0921   -0.5710 H   0  0  0  0  0  0  0  0  0  0  0  0
   -1.6759    0.5172    1.1114 H   0  0  0  0  0  0  0  0  0  0  0  0
   -1.7136   -1.0843   -0.3278 C   0  0  0  0  0  0  0  0  0  0  0  0
   -1.0902   -1.8634    0.2180 H   0  0  0  0  0  0  0  0  0  0  0  0
   -1.5695   -1.3001   -1.3789 H   0  0  0  0  0  0  0  0  0  0  0  0
    2.5135    0.1297    0.0871 Br  0  0  0  0  0 15  0  0  0  0  0  0
   -2.9951    1.1835   -0.4289 C   0  0  0  0  0  0  0  0  0  0  0  0
   -2.8856    1.1807   -1.5284 H   0  0  0  0  0  0  0  0  0  0  0  0
   -3.1311    2.2406   -0.0013 H   0  0  0  0  0  0  0  0  0  0  0  0
   -3.9070    0.1573    0.1771 C   0  0  0  0  0  0  0  0  0  0  0  0
   -4.9923    0.0314   -0.1456 H   0  0  0  0  0  0  0  0  0  0  0  0
   -3.7660    0.4131    1.2510 H   0  0  0  0  0  0  0  0  0  0  0  0
   -3.5007   -1.3227    0.0704 O   0  0  0  0  0  0  0  0  0  0  0  0
  1  3  1  0  0  0  0
  2  1  1  0  0  0  0
  4  1  1  0  0  0  0
  4 14  1  0  0  0  0
  4  5  1  0  0  0  0
  6  4  1  0  0  0  0
  8 10  1  0  0  0  0
  8  1  1  0  0  0  0
  8 11  1  0  0  0  0
  9  8  1  0  0  0  0
 11 13  1  0  0  0  0
 12 11  1  0  0  0  0
 14 11  1  0  0  0  0
M  END
$$$$
Title Card Required
 OpenBabel07152211483D

 14 13  0  0  0  0  0  0  0  0999 V2000
   -1.5671    0.4564    0.0022 C   0  0  0  0  0  0  0  0  0  0  0  0
   -0.7631    1.0831   -0.5693 H   0  0  0  0  0  0  0  0  0  0  0  0
   -1.6965    0.5160    1.1128 H   0  0  0  0  0  0  0  0  0  0  0  0
   -1.7119   -1.1053   -0.3222 C   0  0  0  0  0  0  0  0  0  0  0  0
   -1.0676   -1.8391    0.2300 H   0  0  0  0  0  0  0  0  0  0  0  0
   -1.6362   -1.2662   -1.4556 H   0  0  0  0  0  0  0  0  0  0  0  0
    2.5187    0.1310    0.0872 Br  0  0  0  0  0 15  0  0  0  0  0  0
   -3.0042    1.1833   -0.4320 C   0  0  0  0  0  0  0  0  0  0  0  0
   -2.8899    1.2443   -1.4743 H   0  0  0  0  0  0  0  0  0  0  0  0
   -3.2090    2.2150   -0.0222 H   0  0  0  0  0  0  0  0  0  0  0  0
   -3.9117    0.1560    0.1684 C   0  0  0  0  0  0  0  0  0  0  0  0
   -4.9056    0.0904   -0.1187 H   0  0  0  0  0  0  0  0  0  0  0  0
   -3.8104    0.3413    1.2061 H   0  0  0  0  0  0  0  0  0  0  0  0
   -3.5198   -1.3148    0.0764 O   0  0  0  0  0  0  0  0  0  0  0  0
  1  3  1  0  0  0  0
  2  1  1  0  0  0  0
  4  1  1  0  0  0  0
  4 14  1  0  0  0  0
  4  5  1  0  0  0  0
  6  4  1  0  0  0  0
  8 10  1  0  0  0  0
  8  1  1  0  0  0  0
  8 11  1  0  0  0  0
  9  8  1  0  0  0  0
 11 13  1  0  0  0  0
 12 11  1  0  0  0  0
 14 11  1  0  0  0  0
M  END
$$$$
Title Card Required
 OpenBabel07152211483D

 14 12  0  0  0  0  0  0  0  0999 V2000
   -1.5534    0.4538    0.0035 C   0  0  0  0  0  0  0  0  0  0  0  0
   -0.8098    1.0431   -0.5382 H   0  0  0  0  0  0  0  0  0  0  0  0
   -1.6924    0.5205    1.1047 H   0  0  0  0  0  0  0  0  0  0  0  0
   -1.7144   -1.1257   -0.3175 C   0  0  0  0  0  3  0  0  0  0  0  0
   -1.0573   -1.7984    0.2429 H   0  0  0  0  0  0  0  0  0  0  0  0
   -1.7169   -1.2304   -1.5128 H   0  0  0  0  0  0  0  0  0  0  0  0
    2.5244    0.1325    0.0873 Br  0  0  0  0  0 15  0  0  0  0  0  0
   -3.0108    1.1802   -0.4334 C   0  0  0  0  0  0  0  0  0  0  0  0
   -2.9070    1.3161   -1.4513 H   0  0  0  0  0  0  0  0  0  0  0  0
   -3.2854    2.1697   -0.0464 H   0  0  0  0  0  0  0  0  0  0  0  0
   -3.9141    0.1495    0.1590 C   0  0  0  0  0  0  0  0  0  0  0  0
   -4.8573    0.1648   -0.1037 H   0  0  0  0  0  0  0  0  0  0  0  0
   -3.8699    0.2704    1.1869 H   0  0  0  0  0  0  0  0  0  0  0  0
   -3.5358   -1.3023    0.0811 O   0  0  0  0  0  1  0  0  0  0  0  0
  1  3  1  0  0  0  0
  2  1  1  0  0  0  0
  4  1  1  0  0  0  0
  4  5  1  0  0  0  0
  6  4  1  0  0  0  0
  8 10  1  0  0  0  0
  8  1  1  0  0  0  0
  8 11  1  0  0  0  0
  9  8  1  0  0  0  0
 11 13  1  0  0  0  0
 12 11  1  0  0  0  0
 14 11  1  0  0  0  0
M  END
$$$$
Title Card Required
 OpenBabel07152211483D

 14 12  0  0  0  0  0  0  0  0999 V2000
   -1.5456    0.4500    0.0053 C   0  0  0  0  0  0  0  0  0  0  0  0
   -0.8376    0.9905   -0.4947 H   0  0  0  0  0  0  0  0  0  0  0  0
   -1.6579    0.5315    1.0900 H   0  0  0  0  0  0  0  0  0  0  0  0
   -1.7234   -1.1409   -0.3167 C   0  0  0  0  0  3  0  0  0  0  0  0
   -1.0550   -1.7579    0.2585 H   0  0  0  0  0  0  0  0  0  0  0  0
   -1.7997   -1.2008   -1.5152 H   0  0  0  0  0  0  0  0  0  0  0  0
    2.5303    0.1341    0.0874 Br  0  0  0  0  0 15  0  0  0  0  0  0
   -3.0135    1.1729   -0.4316 C   0  0  0  0  0  0  0  0  0  0  0  0
   -2.9366    1.3864   -1.4845 H   0  0  0  0  0  0  0  0  0  0  0  0
   -3.3517    2.1233   -0.0596 H   0  0  0  0  0  0  0  0  0  0  0  0
   -3.9100    0.1369    0.1498 C   0  0  0  0  0  0  0  0  0  0  0  0
   -4.9127    0.2468   -0.1242 H   0  0  0  0  0  0  0  0  0  0  0  0
   -3.9352    0.2181    1.2180 H   0  0  0  0  0  0  0  0  0  0  0  0
   -3.5466   -1.2859    0.0839 O   0  0  0  0  0  1  0  0  0  0  0  0
  1  3  1  0  0  0  0
  2  1  1  0  0  0  0
  4  1  1  0  0  0  0
  4  5  1  0  0  0  0
  6  4  1  0  0  0  0
  8 10  1  0  0  0  0
  8  1  1  0  0  0  0
  8 11  1  0  0  0  0
  9  8  1  0  0  0  0
 11 13  1  0  0  0  0
 12 11  1  0  0  0  0
 14 11  1  0  0  0  0
M  END
$$$$
Title Card Required
 OpenBabel07152211483D

 14 13  0  0  0  0  0  0  0  0999 V2000
   -1.5474    0.4432    0.0088 C   0  0  0  0  0  0  0  0  0  0  0  0
   -0.8079    0.9577   -0.4703 H   0  0  0  0  0  0  0  0  0  0  0  0
   -1.5996    0.5470    1.0797 H   0  0  0  0  0  0  0  0  0  0  0  0
   -1.7393   -1.1479   -0.3205 C   0  0  0  0  0  0  0  0  0  0  0  0
   -1.0545   -1.7330    0.2784 H   0  0  0  0  0  0  0  0  0  0  0  0
   -1.8704   -1.1863   -1.4614 H   0  0  0  0  0  0  0  0  0  0  0  0
    2.5359    0.1356    0.0875 Br  0  0  0  0  0 15  0  0  0  0  0  0
   -3.0114    1.1614   -0.4291 C   0  0  0  0  0  0  0  0  0  0  0  0
   -2.9760    1.4399   -1.5411 H   0  0  0  0  0  0  0  0  0  0  0  0
   -3.4030    2.0946   -0.0508 H   0  0  0  0  0  0  0  0  0  0  0  0
   -3.9048    0.1200    0.1423 C   0  0  0  0  0  0  0  0  0  0  0  0
   -5.0140    0.3231   -0.1669 H   0  0  0  0  0  0  0  0  0  0  0  0
   -3.9966    0.1930    1.2731 H   0  0  0  0  0  0  0  0  0  0  0  0
   -3.5516   -1.2677    0.0840 O   0  0  0  0  0  0  0  0  0  0  0  0
  1  3  1  0  0  0  0
  2  1  1  0  0  0  0
  4  1  1  0  0  0  0
  4 14  1  0  0  0  0
  4  5  1  0  0  0  0
  6  4  1  0  0  0  0
  8 10  1  0  0  0  0
  8  1  1  0  0  0  0
  8 11  1  0  0  0  0
  9  8  1  0  0  0  0
 11 13  1  0  0  0  0
 12 11  1  0  0  0  0
 14 11  1  0  0  0  0
M  END
$$$$
Title Card Required
 OpenBabel07152211483D

 14 13  0  0  0  0  0  0  0  0999 V2000
   -1.5578    0.4338    0.0127 C   0  0  0  0  0  0  0  0  0  0  0  0
   -0.7253    0.9431   -0.4677 H   0  0  0  0  0  0  0  0  0  0  0  0
   -1.5256    0.5646    1.0827 H   0  0  0  0  0  0  0  0  0  0  0  0
   -1.7615   -1.1469   -0.3260 C   0  0  0  0  0  0  0  0  0  0  0  0
   -1.0585   -1.7239    0.2976 H   0  0  0  0  0  0  0  0  0  0  0  0
   -1.9267   -1.1898   -1.3779 H   0  0  0  0  0  0  0  0  0  0  0  0
    2.5413    0.1370    0.0876 Br  0  0  0  0  0 15  0  0  0  0  0  0
   -3.0051    1.1474   -0.4285 C   0  0  0  0  0  0  0  0  0  0  0  0
   -3.0227    1.4672   -1.5805 H   0  0  0  0  0  0  0  0  0  0  0  0
   -3.4377    2.0813   -0.0217 H   0  0  0  0  0  0  0  0  0  0  0  0
   -3.9048    0.1007    0.1378 C   0  0  0  0  0  0  0  0  0  0  0  0
   -5.0873    0.3822   -0.2109 H   0  0  0  0  0  0  0  0  0  0  0  0
   -4.0511    0.1928    1.3140 H   0  0  0  0  0  0  0  0  0  0  0  0
   -3.5514   -1.2487    0.0818 O   0  0  0  0  0  0  0  0  0  0  0  0
  1  3  1  0  0  0  0
  2  1  1  0  0  0  0
  4  1  1  0  0  0  0
  4 14  1  0  0  0  0
  4  5  1  0  0  0  0
  6  4  1  0  0  0  0
  8 10  1  0  0  0  0
  8  1  1  0  0  0  0
  8 11  1  0  0  0  0
  9  8  1  0  0  0  0
 11 13  1  0  0  0  0
 12 11  1  0  0  0  0
 14 11  1  0  0  0  0
M  END
$$$$
Title Card Required
 OpenBabel07152211483D

 14 13  0  0  0  0  0  0  0  0999 V2000
   -1.5733    0.4238    0.0150 C   0  0  0  0  0  0  0  0  0  0  0  0
   -0.6276    0.9209   -0.4677 H   0  0  0  0  0  0  0  0  0  0  0  0
   -1.4405    0.5818    1.0980 H   0  0  0  0  0  0  0  0  0  0  0  0
   -1.7897   -1.1382   -0.3282 C   0  0  0  0  0  0  0  0  0  0  0  0
   -1.0762   -1.7251    0.3076 H   0  0  0  0  0  0  0  0  0  0  0  0
   -1.9743   -1.2143   -1.3123 H   0  0  0  0  0  0  0  0  0  0  0  0
    2.5468    0.1385    0.0877 Br  0  0  0  0  0 15  0  0  0  0  0  0
   -2.9954    1.1320   -0.4303 C   0  0  0  0  0  0  0  0  0  0  0  0
   -3.0728    1.4633   -1.5828 H   0  0  0  0  0  0  0  0  0  0  0  0
   -3.4501    2.0699    0.0215 H   0  0  0  0  0  0  0  0  0  0  0  0
   -3.9128    0.0801    0.1370 C   0  0  0  0  0  0  0  0  0  0  0  0
   -5.1080    0.4161   -0.2494 H   0  0  0  0  0  0  0  0  0  0  0  0
   -4.0978    0.2149    1.3201 H   0  0  0  0  0  0  0  0  0  0  0  0
   -3.5462   -1.2286    0.0770 O   0  0  0  0  0  0  0  0  0  0  0  0
  1  3  1  0  0  0  0
  2  1  1  0  0  0  0
  4  1  1  0  0  0  0
  4 14  1  0  0  0  0
  4  5  1  0  0  0  0
  6  4  1  0  0  0  0
  8  1  1  0  0  0  0
  8 10  1  0  0  0  0
  8 11  1  0  0  0  0
  9  8  1  0  0  0  0
 11 13  1  0  0  0  0
 12 11  1  0  0  0  0
 14 11  1  0  0  0  0
M  END
$$$$
Title Card Required
 OpenBabel07152211483D

 14 13  0  0  0  0  0  0  0  0999 V2000
   -1.5886    0.4160    0.0147 C   0  0  0  0  0  0  0  0  0  0  0  0
   -0.5604    0.8753   -0.4559 H   0  0  0  0  0  0  0  0  0  0  0  0
   -1.3599    0.5930    1.1104 H   0  0  0  0  0  0  0  0  0  0  0  0
   -1.8204   -1.1233   -0.3221 C   0  0  0  0  0  0  0  0  0  0  0  0
   -1.1128   -1.7312    0.3015 H   0  0  0  0  0  0  0  0  0  0  0  0
   -2.0162   -1.2592   -1.3167 H   0  0  0  0  0  0  0  0  0  0  0  0
    2.5520    0.1399    0.0877 Br  0  0  0  0  0 15  0  0  0  0  0  0
   -2.9845    1.1173   -0.4333 C   0  0  0  0  0  0  0  0  0  0  0  0
   -3.1165    1.4292   -1.5464 H   0  0  0  0  0  0  0  0  0  0  0  0
   -3.4339    2.0498    0.0668 H   0  0  0  0  0  0  0  0  0  0  0  0
   -3.9280    0.0622    0.1399 C   0  0  0  0  0  0  0  0  0  0  0  0
   -5.0745    0.4176   -0.2779 H   0  0  0  0  0  0  0  0  0  0  0  0
   -4.1314    0.2520    1.2882 H   0  0  0  0  0  0  0  0  0  0  0  0
   -3.5368   -1.2101    0.0702 O   0  0  0  0  0  0  0  0  0  0  0  0
  1  3  1  0  0  0  0
  2  1  1  0  0  0  0
  4  1  1  0  0  0  0
  4 14  1  0  0  0  0
  4  5  1  0  0  0  0
  6  4  1  0  0  0  0
  8  1  1  0  0  0  0
  8 10  1  0  0  0  0
  8 11  1  0  0  0  0
  9  8  1  0  0  0  0
 11 13  1  0  0  0  0
 12 11  1  0  0  0  0
 14 11  1  0  0  0  0
M  END
$$$$
Title Card Required
 OpenBabel07152211483D

 14 13  0  0  0  0  0  0  0  0999 V2000
   -1.6004    0.4109    0.0128 C   0  0  0  0  0  0  0  0  0  0  0  0
   -0.5366    0.8150   -0.4358 H   0  0  0  0  0  0  0  0  0  0  0  0
   -1.2991    0.5958    1.1087 H   0  0  0  0  0  0  0  0  0  0  0  0
   -1.8498   -1.1059   -0.3114 C   0  0  0  0  0  0  0  0  0  0  0  0
   -1.1608   -1.7390    0.2851 H   0  0  0  0  0  0  0  0  0  0  0  0
   -2.0462   -1.3118   -1.3636 H   0  0  0  0  0  0  0  0  0  0  0  0
    2.5564    0.1411    0.0878 Br  0  0  0  0  0 15  0  0  0  0  0  0
   -2.9747    1.1051   -0.4353 C   0  0  0  0  0  0  0  0  0  0  0  0
   -3.1475    1.3802   -1.4941 H   0  0  0  0  0  0  0  0  0  0  0  0
   -3.3959    2.0220    0.1037 H   0  0  0  0  0  0  0  0  0  0  0  0
   -3.9464    0.0500    0.1446 C   0  0  0  0  0  0  0  0  0  0  0  0
   -5.0096    0.3930   -0.2969 H   0  0  0  0  0  0  0  0  0  0  0  0
   -4.1519    0.2920    1.2377 H   0  0  0  0  0  0  0  0  0  0  0  0
   -3.5250   -1.1958    0.0629 O   0  0  0  0  0  0  0  0  0  0  0  0
  1  3  1  0  0  0  0
  2  1  1  0  0  0  0
  4  1  1  0  0  0  0
  4 14  1  0  0  0  0
  4  5  1  0  0  0  0
  6  4  1  0  0  0  0
  8  1  1  0  0  0  0
  8 10  1  0  0  0  0
  8 11  1  0  0  0  0
  9  8  1  0  0  0  0
 11 13  1  0  0  0  0
 12 11  1  0  0  0  0
 14 11  1  0  0  0  0
M  END
$$$$
Title Card Required
 OpenBabel07152211483D

 14 13  0  0  0  0  0  0  0  0999 V2000
   -1.6092    0.4074    0.0102 C   0  0  0  0  0  0  0  0  0  0  0  0
   -0.5446    0.7468   -0.4134 H   0  0  0  0  0  0  0  0  0  0  0  0
   -1.2566    0.5917    1.0932 H   0  0  0  0  0  0  0  0  0  0  0  0
   -1.8795   -1.0874   -0.3002 C   0  0  0  0  0  0  0  0  0  0  0  0
   -1.2147   -1.7491    0.2656 H   0  0  0  0  0  0  0  0  0  0  0  0
   -2.0624   -1.3627   -1.4100 H   0  0  0  0  0  0  0  0  0  0  0  0
    2.5604    0.1422    0.0878 Br  0  0  0  0  0 15  0  0  0  0  0  0
   -2.9657    1.0940   -0.4350 C   0  0  0  0  0  0  0  0  0  0  0  0
   -3.1694    1.3260   -1.4465 H   0  0  0  0  0  0  0  0  0  0  0  0
   -3.3433    1.9904    0.1332 H   0  0  0  0  0  0  0  0  0  0  0  0
   -3.9660    0.0426    0.1496 C   0  0  0  0  0  0  0  0  0  0  0  0
   -4.9326    0.3515   -0.3127 H   0  0  0  0  0  0  0  0  0  0  0  0
   -4.1652    0.3317    1.1855 H   0  0  0  0  0  0  0  0  0  0  0  0
   -3.5116   -1.1847    0.0554 O   0  0  0  0  0  0  0  0  0  0  0  0
  1  3  1  0  0  0  0
  2  1  1  0  0  0  0
  4  1  1  0  0  0  0
  4 14  1  0  0  0  0
  4  5  1  0  0  0  0
  6  4  1  0  0  0  0
  8  1  1  0  0  0  0
  8 10  1  0  0  0  0
  8 11  1  0  0  0  0
  9  8  1  0  0  0  0
 11 13  1  0  0  0  0
 12 11  1  0  0  0  0
 14 11  1  0  0  0  0
M  END
$$$$
Title Card Required
 OpenBabel07152211483D

 14 13  0  0  0  0  0  0  0  0999 V2000
   -1.6159    0.4048    0.0069 C   0  0  0  0  0  0  0  0  0  0  0  0
   -0.5758    0.6732   -0.3926 H   0  0  0  0  0  0  0  0  0  0  0  0
   -1.2302    0.5819    1.0668 H   0  0  0  0  0  0  0  0  0  0  0  0
   -1.9115   -1.0682   -0.2901 C   0  0  0  0  0  0  0  0  0  0  0  0
   -1.2730   -1.7631    0.2470 H   0  0  0  0  0  0  0  0  0  0  0  0
   -2.0646   -1.4066   -1.4378 H   0  0  0  0  0  0  0  0  0  0  0  0
    2.5642    0.1433    0.0879 Br  0  0  0  0  0 15  0  0  0  0  0  0
   -2.9569    1.0828   -0.4313 C   0  0  0  0  0  0  0  0  0  0  0  0
   -3.1865    1.2709   -1.4184 H   0  0  0  0  0  0  0  0  0  0  0  0
   -3.2787    1.9585    0.1576 H   0  0  0  0  0  0  0  0  0  0  0  0
   -3.9858    0.0389    0.1545 C   0  0  0  0  0  0  0  0  0  0  0  0
   -4.8603    0.2984   -0.3340 H   0  0  0  0  0  0  0  0  0  0  0  0
   -4.1758    0.3722    1.1435 H   0  0  0  0  0  0  0  0  0  0  0  0
   -3.4960   -1.1761    0.0476 O   0  0  0  0  0  0  0  0  0  0  0  0
  1  3  1  0  0  0  0
  2  1  1  0  0  0  0
  4  1  1  0  0  0  0
  4 14  1  0  0  0  0
  4  5  1  0  0  0  0
  6  4  1  0  0  0  0
  8  1  1  0  0  0  0
  8 11  1  0  0  0  0
  8 10  1  0  0  0  0
  9  8  1  0  0  0  0
 11 13  1  0  0  0  0
 12 11  1  0  0  0  0
 14 11  1  0  0  0  0
M  END
$$$$
Title Card Required
 OpenBabel07152211483D

 14 13  0  0  0  0  0  0  0  0999 V2000
   -1.6214    0.4023    0.0031 C   0  0  0  0  0  0  0  0  0  0  0  0
   -0.6210    0.5985   -0.3797 H   0  0  0  0  0  0  0  0  0  0  0  0
   -1.2200    0.5675    1.0342 H   0  0  0  0  0  0  0  0  0  0  0  0
   -1.9470   -1.0487   -0.2819 C   0  0  0  0  0  0  0  0  0  0  0  0
   -1.3346   -1.7820    0.2322 H   0  0  0  0  0  0  0  0  0  0  0  0
   -2.0531   -1.4389   -1.4398 H   0  0  0  0  0  0  0  0  0  0  0  0
    2.5681    0.1444    0.0879 Br  0  0  0  0  0 15  0  0  0  0  0  0
   -2.9479    1.0709   -0.4234 C   0  0  0  0  0  0  0  0  0  0  0  0
   -3.2010    1.2177   -1.4201 H   0  0  0  0  0  0  0  0  0  0  0  0
   -3.2045    1.9318    0.1786 H   0  0  0  0  0  0  0  0  0  0  0  0
   -4.0036    0.0381    0.1593 C   0  0  0  0  0  0  0  0  0  0  0  0
   -4.8163    0.2403   -0.3744 H   0  0  0  0  0  0  0  0  0  0  0  0
   -4.1877    0.4145    1.1228 H   0  0  0  0  0  0  0  0  0  0  0  0
   -3.4779   -1.1698    0.0395 O   0  0  0  0  0  0  0  0  0  0  0  0
  1  3  1  0  0  0  0
  2  1  1  0  0  0  0
  4  1  1  0  0  0  0
  4 14  1  0  0  0  0
  4  5  1  0  0  0  0
  6  4  1  0  0  0  0
  8  1  1  0  0  0  0
  8 11  1  0  0  0  0
  8 10  1  0  0  0  0
  9  8  1  0  0  0  0
 11 13  1  0  0  0  0
 12 11  1  0  0  0  0
 14 11  1  0  0  0  0
M  END
$$$$
Title Card Required
 OpenBabel07152211483D

 14 13  0  0  0  0  0  0  0  0999 V2000
   -1.6267    0.3992   -0.0010 C   0  0  0  0  0  0  0  0  0  0  0  0
   -0.6634    0.5311   -0.3835 H   0  0  0  0  0  0  0  0  0  0  0  0
   -1.2251    0.5506    1.0038 H   0  0  0  0  0  0  0  0  0  0  0  0
   -1.9847   -1.0306   -0.2759 C   0  0  0  0  0  0  0  0  0  0  0  0
   -1.3965   -1.8037    0.2234 H   0  0  0  0  0  0  0  0  0  0  0  0
   -2.0303   -1.4551   -1.4154 H   0  0  0  0  0  0  0  0  0  0  0  0
    2.5718    0.1455    0.0879 Br  0  0  0  0  0 15  0  0  0  0  0  0
   -2.9390    1.0585   -0.4122 C   0  0  0  0  0  0  0  0  0  0  0  0
   -3.2116    1.1692   -1.4472 H   0  0  0  0  0  0  0  0  0  0  0  0
   -3.1270    1.9173    0.1967 H   0  0  0  0  0  0  0  0  0  0  0  0
   -4.0173    0.0396    0.1640 C   0  0  0  0  0  0  0  0  0  0  0  0
   -4.8178    0.1841   -0.4415 H   0  0  0  0  0  0  0  0  0  0  0  0
   -4.2033    0.4559    1.1277 H   0  0  0  0  0  0  0  0  0  0  0  0
   -3.4582   -1.1657    0.0316 O   0  0  0  0  0  0  0  0  0  0  0  0
  1  3  1  0  0  0  0
  2  1  1  0  0  0  0
  4  1  1  0  0  0  0
  4 14  1  0  0  0  0
  4  5  1  0  0  0  0
  6  4  1  0  0  0  0
  8  1  1  0  0  0  0
  8 11  1  0  0  0  0
  8 10  1  0  0  0  0
  9  8  1  0  0  0  0
 11 13  1  0  0  0  0
 12 11  1  0  0  0  0
 14 11  1  0  0  0  0
M  END
$$$$
Title Card Required
 OpenBabel07152211483D

 14 13  0  0  0  0  0  0  0  0999 V2000
   -1.6327    0.3951   -0.0053 C   0  0  0  0  0  0  0  0  0  0  0  0
   -0.6876    0.4763   -0.4096 H   0  0  0  0  0  0  0  0  0  0  0  0
   -1.2417    0.5339    0.9841 H   0  0  0  0  0  0  0  0  0  0  0  0
   -2.0230   -1.0151   -0.2720 C   0  0  0  0  0  0  0  0  0  0  0  0
   -1.4572   -1.8242    0.2208 H   0  0  0  0  0  0  0  0  0  0  0  0
   -1.9999   -1.4540   -1.3709 H   0  0  0  0  0  0  0  0  0  0  0  0
    2.5753    0.1465    0.0880 Br  0  0  0  0  0 15  0  0  0  0  0  0
   -2.9308    1.0461   -0.3998 C   0  0  0  0  0  0  0  0  0  0  0  0
   -3.2146    1.1263   -1.4828 H   0  0  0  0  0  0  0  0  0  0  0  0
   -3.0515    1.9182    0.2121 H   0  0  0  0  0  0  0  0  0  0  0  0
   -4.0273    0.0432    0.1684 C   0  0  0  0  0  0  0  0  0  0  0  0
   -4.8527    0.1308   -0.5247 H   0  0  0  0  0  0  0  0  0  0  0  0
   -4.2237    0.4915    1.1503 H   0  0  0  0  0  0  0  0  0  0  0  0
   -3.4377   -1.1632    0.0244 O   0  0  0  0  0  0  0  0  0  0  0  0
  1  3  1  0  0  0  0
  2  1  1  0  0  0  0
  4  1  1  0  0  0  0
  4 14  1  0  0  0  0
  4  5  1  0  0  0  0
  6  4  1  0  0  0  0
  8  1  1  0  0  0  0
  8 11  1  0  0  0  0
  8 10  1  0  0  0  0
  9  8  1  0  0  0  0
 11 13  1  0  0  0  0
 12 11  1  0  0  0  0
 14 11  1  0  0  0  0
M  END
$$$$
Title Card Required
 OpenBabel07152211483D

 14 13  0  0  0  0  0  0  0  0999 V2000
   -1.6398    0.3895   -0.0097 C   0  0  0  0  0  0  0  0  0  0  0  0
   -0.6899    0.4337   -0.4590 H   0  0  0  0  0  0  0  0  0  0  0  0
   -1.2662    0.5188    0.9795 H   0  0  0  0  0  0  0  0  0  0  0  0
   -2.0618   -1.0027   -0.2695 C   0  0  0  0  0  0  0  0  0  0  0  0
   -1.5178   -1.8405    0.2243 H   0  0  0  0  0  0  0  0  0  0  0  0
   -1.9646   -1.4368   -1.3140 H   0  0  0  0  0  0  0  0  0  0  0  0
    2.5788    0.1476    0.0880 Br  0  0  0  0  0 15  0  0  0  0  0  0
   -2.9237    1.0340   -0.3873 C   0  0  0  0  0  0  0  0  0  0  0  0
   -3.2073    1.0883   -1.5123 H   0  0  0  0  0  0  0  0  0  0  0  0
   -2.9786    1.9333    0.2231 H   0  0  0  0  0  0  0  0  0  0  0  0
   -4.0355    0.0490    0.1716 C   0  0  0  0  0  0  0  0  0  0  0  0
   -4.8985    0.0782   -0.6062 H   0  0  0  0  0  0  0  0  0  0  0  0
   -4.2490    0.5171    1.1797 H   0  0  0  0  0  0  0  0  0  0  0  0
   -3.4169   -1.1619    0.0180 O   0  0  0  0  0  0  0  0  0  0  0  0
  1  3  1  0  0  0  0
  2  1  1  0  0  0  0
  4  1  1  0  0  0  0
  4 14  1  0  0  0  0
  4  5  1  0  0  0  0
  6  4  1  0  0  0  0
  8  1  1  0  0  0  0
  8 11  1  0  0  0  0
  8 10  1  0  0  0  0
  9  8  1  0  0  0  0
 11 13  1  0  0  0  0
 12 11  1  0  0  0  0
 14 11  1  0  0  0  0
M  END
$$$$
Title Card Required
 OpenBabel07152211483D

 14 13  0  0  0  0  0  0  0  0999 V2000
   -1.6476    0.3821   -0.0149 C   0  0  0  0  0  0  0  0  0  0  0  0
   -0.6777    0.4018   -0.5290 H   0  0  0  0  0  0  0  0  0  0  0  0
   -1.2972    0.5058    0.9914 H   0  0  0  0  0  0  0  0  0  0  0  0
   -2.1011   -0.9936   -0.2676 C   0  0  0  0  0  0  0  0  0  0  0  0
   -1.5797   -1.8500    0.2342 H   0  0  0  0  0  0  0  0  0  0  0  0
   -1.9250   -1.4053   -1.2541 H   0  0  0  0  0  0  0  0  0  0  0  0
    2.5824    0.1486    0.0881 Br  0  0  0  0  0 15  0  0  0  0  0  0
   -2.9178    1.0225   -0.3750 C   0  0  0  0  0  0  0  0  0  0  0  0
   -3.1871    1.0548   -1.5264 H   0  0  0  0  0  0  0  0  0  0  0  0
   -2.9078    1.9591    0.2262 H   0  0  0  0  0  0  0  0  0  0  0  0
   -4.0437    0.0570    0.1730 C   0  0  0  0  0  0  0  0  0  0  0  0
   -4.9398    0.0258   -0.6723 H   0  0  0  0  0  0  0  0  0  0  0  0
   -4.2800    0.5285    1.2074 H   0  0  0  0  0  0  0  0  0  0  0  0
   -3.3962   -1.1613    0.0123 O   0  0  0  0  0  0  0  0  0  0  0  0
  1  3  1  0  0  0  0
  2  1  1  0  0  0  0
  4  1  1  0  0  0  0
  4 14  1  0  0  0  0
  4  5  1  0  0  0  0
  6  4  1  0  0  0  0
  8  1  1  0  0  0  0
  8 11  1  0  0  0  0
  8 10  1  0  0  0  0
  9  8  1  0  0  0  0
 11 13  1  0  0  0  0
 12 11  1  0  0  0  0
 14 11  1  0  0  0  0
M  END
$$$$
Title Card Required
 OpenBabel07152211483D

 14 13  0  0  0  0  0  0  0  0999 V2000
   -1.6546    0.3719   -0.0214 C   0  0  0  0  0  0  0  0  0  0  0  0
   -0.6652    0.3804   -0.6139 H   0  0  0  0  0  0  0  0  0  0  0  0
   -1.3352    0.4951    1.0181 H   0  0  0  0  0  0  0  0  0  0  0  0
   -2.1407   -0.9880   -0.2652 C   0  0  0  0  0  0  0  0  0  0  0  0
   -1.6433   -1.8501    0.2530 H   0  0  0  0  0  0  0  0  0  0  0  0
   -1.8798   -1.3615   -1.2067 H   0  0  0  0  0  0  0  0  0  0  0  0
    2.5863    0.1498    0.0881 Br  0  0  0  0  0 15  0  0  0  0  0  0
   -2.9136    1.0122   -0.3628 C   0  0  0  0  0  0  0  0  0  0  0  0
   -3.1503    1.0262   -1.5174 H   0  0  0  0  0  0  0  0  0  0  0  0
   -2.8389    1.9912    0.2152 H   0  0  0  0  0  0  0  0  0  0  0  0
   -4.0528    0.0676    0.1719 C   0  0  0  0  0  0  0  0  0  0  0  0
   -4.9671   -0.0254   -0.7114 H   0  0  0  0  0  0  0  0  0  0  0  0
   -4.3176    0.5197    1.2254 H   0  0  0  0  0  0  0  0  0  0  0  0
   -3.3766   -1.1611    0.0077 O   0  0  0  0  0  0  0  0  0  0  0  0
  1  3  1  0  0  0  0
  2  1  1  0  0  0  0
  4  1  1  0  0  0  0
  4 14  1  0  0  0  0
  4  5  1  0  0  0  0
  6  4  1  0  0  0  0
  8  1  1  0  0  0  0
  8 11  1  0  0  0  0
  8 10  1  0  0  0  0
  9  8  1  0  0  0  0
 11 13  1  0  0  0  0
 12 11  1  0  0  0  0
 14 11  1  0  0  0  0
M  END
$$$$
Title Card Required
 OpenBabel07152211483D

 14 13  0  0  0  0  0  0  0  0999 V2000
   -1.6587    0.3579   -0.0291 C   0  0  0  0  0  0  0  0  0  0  0  0
   -0.6718    0.3726   -0.7019 H   0  0  0  0  0  0  0  0  0  0  0  0
   -1.3815    0.4867    1.0517 H   0  0  0  0  0  0  0  0  0  0  0  0
   -2.1773   -0.9868   -0.2612 C   0  0  0  0  0  0  0  0  0  0  0  0
   -1.7041   -1.8378    0.2844 H   0  0  0  0  0  0  0  0  0  0  0  0
   -1.8264   -1.3098   -1.1972 H   0  0  0  0  0  0  0  0  0  0  0  0
    2.5908    0.1511    0.0881 Br  0  0  0  0  0 15  0  0  0  0  0  0
   -2.9117    1.0048   -0.3505 C   0  0  0  0  0  0  0  0  0  0  0  0
   -3.0932    1.0053   -1.4776 H   0  0  0  0  0  0  0  0  0  0  0  0
   -2.7762    2.0224    0.1803 H   0  0  0  0  0  0  0  0  0  0  0  0
   -4.0639    0.0811    0.1674 C   0  0  0  0  0  0  0  0  0  0  0  0
   -4.9698   -0.0706   -0.7083 H   0  0  0  0  0  0  0  0  0  0  0  0
   -4.3629    0.4814    1.2240 H   0  0  0  0  0  0  0  0  0  0  0  0
   -3.3618   -1.1611    0.0050 O   0  0  0  0  0  0  0  0  0  0  0  0
  1  3  1  0  0  0  0
  2  1  1  0  0  0  0
  4  1  1  0  0  0  0
  4 14  1  0  0  0  0
  4  5  1  0  0  0  0
  6  4  1  0  0  0  0
  8  1  1  0  0  0  0
  8 11  1  0  0  0  0
  8 10  1  0  0  0  0
  9  8  1  0  0  0  0
 11 13  1  0  0  0  0
 12 11  1  0  0  0  0
 14 11  1  0  0  0  0
M  END
$$$$
Title Card Required
 OpenBabel07152211483D

 14 13  0  0  0  0  0  0  0  0999 V2000
   -1.6573    0.3403   -0.0367 C   0  0  0  0  0  0  0  0  0  0  0  0
   -0.7145    0.3824   -0.7679 H   0  0  0  0  0  0  0  0  0  0  0  0
   -1.4309    0.4806    1.0741 H   0  0  0  0  0  0  0  0  0  0  0  0
   -2.2006   -0.9914   -0.2566 C   0  0  0  0  0  0  0  0  0  0  0  0
   -1.7465   -1.8146    0.3274 H   0  0  0  0  0  0  0  0  0  0  0  0
   -1.7727   -1.2579   -1.2386 H   0  0  0  0  0  0  0  0  0  0  0  0
    2.5955    0.1526    0.0882 Br  0  0  0  0  0 15  0  0  0  0  0  0
   -2.9126    1.0032   -0.3389 C   0  0  0  0  0  0  0  0  0  0  0  0
   -3.0217    0.9975   -1.4158 H   0  0  0  0  0  0  0  0  0  0  0  0
   -2.7331    2.0412    0.1176 H   0  0  0  0  0  0  0  0  0  0  0  0
   -4.0763    0.0962    0.1587 C   0  0  0  0  0  0  0  0  0  0  0  0
   -4.9403   -0.0976   -0.6511 H   0  0  0  0  0  0  0  0  0  0  0  0
   -4.4116    0.4109    1.1969 H   0  0  0  0  0  0  0  0  0  0  0  0
   -3.3595   -1.1613    0.0057 O   0  0  0  0  0  0  0  0  0  0  0  0
  1  3  1  0  0  0  0
  2  1  1  0  0  0  0
  4  1  1  0  0  0  0
  4 14  1  0  0  0  0
  4  5  1  0  0  0  0
  6  4  1  0  0  0  0
  8  1  1  0  0  0  0
  8 10  1  0  0  0  0
  8 11  1  0  0  0  0
  9  8  1  0  0  0  0
 11 13  1  0  0  0  0
 12 11  1  0  0  0  0
 14 11  1  0  0  0  0
M  END
$$$$
Title Card Required
 OpenBabel07152211483D

 14 13  0  0  0  0  0  0  0  0999 V2000
   -1.6514    0.3225   -0.0419 C   0  0  0  0  0  0  0  0  0  0  0  0
   -0.7851    0.4072   -0.7948 H   0  0  0  0  0  0  0  0  0  0  0  0
   -1.4712    0.4760    1.0727 H   0  0  0  0  0  0  0  0  0  0  0  0
   -2.2033   -1.0014   -0.2543 C   0  0  0  0  0  0  0  0  0  0  0  0
   -1.7580   -1.7889    0.3717 H   0  0  0  0  0  0  0  0  0  0  0  0
   -1.7387   -1.2135   -1.3009 H   0  0  0  0  0  0  0  0  0  0  0  0
    2.5999    0.1540    0.0882 Br  0  0  0  0  0 15  0  0  0  0  0  0
   -2.9157    1.0077   -0.3283 C   0  0  0  0  0  0  0  0  0  0  0  0
   -2.9547    1.0033   -1.3688 H   0  0  0  0  0  0  0  0  0  0  0  0
   -2.7179    2.0451    0.0414 H   0  0  0  0  0  0  0  0  0  0  0  0
   -4.0877    0.1100    0.1473 C   0  0  0  0  0  0  0  0  0  0  0  0
   -4.8929   -0.0994   -0.5616 H   0  0  0  0  0  0  0  0  0  0  0  0
   -4.4563    0.3255    1.1570 H   0  0  0  0  0  0  0  0  0  0  0  0
   -3.3728   -1.1617    0.0100 O   0  0  0  0  0  0  0  0  0  0  0  0
  1  3  1  0  0  0  0
  2  1  1  0  0  0  0
  4  1  1  0  0  0  0
  4 14  1  0  0  0  0
  4  5  1  0  0  0  0
  6  4  1  0  0  0  0
  8  1  1  0  0  0  0
  8 10  1  0  0  0  0
  8 11  1  0  0  0  0
  9  8  1  0  0  0  0
 11 13  1  0  0  0  0
 12 11  1  0  0  0  0
 14 11  1  0  0  0  0
M  END
$$$$
Title Card Required
 OpenBabel07152211483D

 14 13  0  0  0  0  0  0  0  0999 V2000
   -1.6439    0.3059   -0.0440 C   0  0  0  0  0  0  0  0  0  0  0  0
   -0.8633    0.4430   -0.7923 H   0  0  0  0  0  0  0  0  0  0  0  0
   -1.4966    0.4718    1.0525 H   0  0  0  0  0  0  0  0  0  0  0  0
   -2.1896   -1.0156   -0.2554 C   0  0  0  0  0  0  0  0  0  0  0  0
   -1.7425   -1.7666    0.4105 H   0  0  0  0  0  0  0  0  0  0  0  0
   -1.7312   -1.1790   -1.3553 H   0  0  0  0  0  0  0  0  0  0  0  0
    2.6040    0.1552    0.0882 Br  0  0  0  0  0 15  0  0  0  0  0  0
   -2.9198    1.0161   -0.3177 C   0  0  0  0  0  0  0  0  0  0  0  0
   -2.8999    1.0177   -1.3597 H   0  0  0  0  0  0  0  0  0  0  0  0
   -2.7247    2.0445   -0.0337 H   0  0  0  0  0  0  0  0  0  0  0  0
   -4.0957    0.1218    0.1354 C   0  0  0  0  0  0  0  0  0  0  0  0
   -4.8586   -0.0833   -0.4789 H   0  0  0  0  0  0  0  0  0  0  0  0
   -4.4970    0.2400    1.1226 H   0  0  0  0  0  0  0  0  0  0  0  0
   -3.3974   -1.1621    0.0167 O   0  0  0  0  0  0  0  0  0  0  0  0
  1  3  1  0  0  0  0
  2  1  1  0  0  0  0
  4  1  1  0  0  0  0
  4 14  1  0  0  0  0
  4  5  1  0  0  0  0
  6  4  1  0  0  0  0
  8  1  1  0  0  0  0
  8 10  1  0  0  0  0
  8 11  1  0  0  0  0
  9  8  1  0  0  0  0
 11 13  1  0  0  0  0
 12 11  1  0  0  0  0
 14 11  1  0  0  0  0
M  END
$$$$
Title Card Required
 OpenBabel07152211483D

 14 13  0  0  0  0  0  0  0  0999 V2000
   -1.6373    0.2905   -0.0427 C   0  0  0  0  0  0  0  0  0  0  0  0
   -0.9301    0.4900   -0.7777 H   0  0  0  0  0  0  0  0  0  0  0  0
   -1.5046    0.4679    1.0233 H   0  0  0  0  0  0  0  0  0  0  0  0
   -2.1651   -1.0337   -0.2596 C   0  0  0  0  0  0  0  0  0  0  0  0
   -1.7066   -1.7493    0.4408 H   0  0  0  0  0  0  0  0  0  0  0  0
   -1.7492   -1.1562   -1.3913 H   0  0  0  0  0  0  0  0  0  0  0  0
    2.6080    0.1565    0.0882 Br  0  0  0  0  0 15  0  0  0  0  0  0
   -2.9246    1.0266   -0.3076 C   0  0  0  0  0  0  0  0  0  0  0  0
   -2.8578    1.0366   -1.3850 H   0  0  0  0  0  0  0  0  0  0  0  0
   -2.7472    2.0525   -0.1002 H   0  0  0  0  0  0  0  0  0  0  0  0
   -4.0979    0.1324    0.1251 C   0  0  0  0  0  0  0  0  0  0  0  0
   -4.8727   -0.0592   -0.4389 H   0  0  0  0  0  0  0  0  0  0  0  0
   -4.5357    0.1603    1.1045 H   0  0  0  0  0  0  0  0  0  0  0  0
   -3.4294   -1.1623    0.0247 O   0  0  0  0  0  0  0  0  0  0  0  0
  1  3  1  0  0  0  0
  2  1  1  0  0  0  0
  4  1  1  0  0  0  0
  4 14  1  0  0  0  0
  4  5  1  0  0  0  0
  6  4  1  0  0  0  0
  8 10  1  0  0  0  0
  8  1  1  0  0  0  0
  8 11  1  0  0  0  0
  9  8  1  0  0  0  0
 11 13  1  0  0  0  0
 12 11  1  0  0  0  0
 14 11  1  0  0  0  0
M  END
$$$$
Title Card Required
 OpenBabel07152211483D

 14 13  0  0  0  0  0  0  0  0999 V2000
   -1.6337    0.2772   -0.0380 C   0  0  0  0  0  0  0  0  0  0  0  0
   -0.9659    0.5467   -0.7685 H   0  0  0  0  0  0  0  0  0  0  0  0
   -1.4933    0.4653    0.9983 H   0  0  0  0  0  0  0  0  0  0  0  0
   -2.1361   -1.0543   -0.2658 C   0  0  0  0  0  0  0  0  0  0  0  0
   -1.6595   -1.7384    0.4589 H   0  0  0  0  0  0  0  0  0  0  0  0
   -1.7870   -1.1477   -1.4036 H   0  0  0  0  0  0  0  0  0  0  0  0
    2.6117    0.1577    0.0882 Br  0  0  0  0  0 15  0  0  0  0  0  0
   -2.9295    1.0371   -0.3001 C   0  0  0  0  0  0  0  0  0  0  0  0
   -2.8314    1.0554   -1.4234 H   0  0  0  0  0  0  0  0  0  0  0  0
   -2.7793    2.0769   -0.1498 H   0  0  0  0  0  0  0  0  0  0  0  0
   -4.0944    0.1414    0.1178 C   0  0  0  0  0  0  0  0  0  0  0  0
   -4.9408   -0.0317   -0.4516 H   0  0  0  0  0  0  0  0  0  0  0  0
   -4.5687    0.0947    1.1040 H   0  0  0  0  0  0  0  0  0  0  0  0
   -3.4634   -1.1624    0.0329 O   0  0  0  0  0  0  0  0  0  0  0  0
  1  3  1  0  0  0  0
  2  1  1  0  0  0  0
  4  1  1  0  0  0  0
  4 14  1  0  0  0  0
  4  5  1  0  0  0  0
  6  4  1  0  0  0  0
  8 10  1  0  0  0  0
  8  1  1  0  0  0  0
  8 11  1  0  0  0  0
  9  8  1  0  0  0  0
 11 13  1  0  0  0  0
 12 11  1  0  0  0  0
 14 11  1  0  0  0  0
M  END
$$$$
Title Card Required
 OpenBabel07152211483D

 14 13  0  0  0  0  0  0  0  0999 V2000
   -1.6336    0.2661   -0.0311 C   0  0  0  0  0  0  0  0  0  0  0  0
   -0.9699    0.6111   -0.7696 H   0  0  0  0  0  0  0  0  0  0  0  0
   -1.4646    0.4645    0.9873 H   0  0  0  0  0  0  0  0  0  0  0  0
   -2.1063   -1.0762   -0.2732 C   0  0  0  0  0  0  0  0  0  0  0  0
   -1.6081   -1.7337    0.4644 H   0  0  0  0  0  0  0  0  0  0  0  0
   -1.8372   -1.1536   -1.3953 H   0  0  0  0  0  0  0  0  0  0  0  0
    2.6152    0.1588    0.0881 Br  0  0  0  0  0 15  0  0  0  0  0  0
   -2.9341    1.0472   -0.2961 C   0  0  0  0  0  0  0  0  0  0  0  0
   -2.8204    1.0715   -1.4566 H   0  0  0  0  0  0  0  0  0  0  0  0
   -2.8172    2.1152   -0.1827 H   0  0  0  0  0  0  0  0  0  0  0  0
   -4.0889    0.1481    0.1122 C   0  0  0  0  0  0  0  0  0  0  0  0
   -5.0288    0.0037   -0.4920 H   0  0  0  0  0  0  0  0  0  0  0  0
   -4.5929    0.0461    1.1130 H   0  0  0  0  0  0  0  0  0  0  0  0
   -3.4965   -1.1623    0.0405 O   0  0  0  0  0  0  0  0  0  0  0  0
  1  3  1  0  0  0  0
  2  1  1  0  0  0  0
  4  1  1  0  0  0  0
  4 14  1  0  0  0  0
  4  5  1  0  0  0  0
  6  4  1  0  0  0  0
  8 10  1  0  0  0  0
  8  1  1  0  0  0  0
  8 11  1  0  0  0  0
  9  8  1  0  0  0  0
 11 13  1  0  0  0  0
 12 11  1  0  0  0  0
 14 11  1  0  0  0  0
M  END
$$$$
Title Card Required
 OpenBabel07152211483D

 14 13  0  0  0  0  0  0  0  0999 V2000
   -1.6359    0.2573   -0.0232 C   0  0  0  0  0  0  0  0  0  0  0  0
   -0.9524    0.6795   -0.7729 H   0  0  0  0  0  0  0  0  0  0  0  0
   -1.4195    0.4655    0.9933 H   0  0  0  0  0  0  0  0  0  0  0  0
   -2.0767   -1.0996   -0.2813 C   0  0  0  0  0  0  0  0  0  0  0  0
   -1.5551   -1.7354    0.4577 H   0  0  0  0  0  0  0  0  0  0  0  0
   -1.8952   -1.1740   -1.3727 H   0  0  0  0  0  0  0  0  0  0  0  0
    2.6186    0.1599    0.0881 Br  0  0  0  0  0 15  0  0  0  0  0  0
   -2.9383    1.0575   -0.2955 C   0  0  0  0  0  0  0  0  0  0  0  0
   -2.8239    1.0842   -1.4761 H   0  0  0  0  0  0  0  0  0  0  0  0
   -2.8611    2.1595   -0.2016 H   0  0  0  0  0  0  0  0  0  0  0  0
   -4.0846    0.1525    0.1071 C   0  0  0  0  0  0  0  0  0  0  0  0
   -5.1076    0.0512   -0.5384 H   0  0  0  0  0  0  0  0  0  0  0  0
   -4.6066    0.0153    1.1229 H   0  0  0  0  0  0  0  0  0  0  0  0
   -3.5288   -1.1622    0.0477 O   0  0  0  0  0  0  0  0  0  0  0  0
  1  3  1  0  0  0  0
  2  1  1  0  0  0  0
  4  1  1  0  0  0  0
  4 14  1  0  0  0  0
  4  5  1  0  0  0  0
  6  4  1  0  0  0  0
  8 10  1  0  0  0  0
  8  1  1  0  0  0  0
  8 11  1  0  0  0  0
  9  8  1  0  0  0  0
 11 13  1  0  0  0  0
 12 11  1  0  0  0  0
 14 11  1  0  0  0  0
M  END
$$$$
Title Card Required
 OpenBabel07152211483D

 14 13  0  0  0  0  0  0  0  0999 V2000
   -1.6397    0.2514   -0.0150 C   0  0  0  0  0  0  0  0  0  0  0  0
   -0.9251    0.7448   -0.7673 H   0  0  0  0  0  0  0  0  0  0  0  0
   -1.3594    0.4664    1.0133 H   0  0  0  0  0  0  0  0  0  0  0  0
   -2.0477   -1.1245   -0.2892 C   0  0  0  0  0  0  0  0  0  0  0  0
   -1.5015   -1.7449    0.4384 H   0  0  0  0  0  0  0  0  0  0  0  0
   -1.9573   -1.2110   -1.3461 H   0  0  0  0  0  0  0  0  0  0  0  0
    2.6221    0.1610    0.0881 Br  0  0  0  0  0 15  0  0  0  0  0  0
   -2.9418    1.0689   -0.2985 C   0  0  0  0  0  0  0  0  0  0  0  0
   -2.8422    1.0929   -1.4773 H   0  0  0  0  0  0  0  0  0  0  0  0
   -2.9113    2.2004   -0.2074 H   0  0  0  0  0  0  0  0  0  0  0  0
   -4.0833    0.1544    0.1021 C   0  0  0  0  0  0  0  0  0  0  0  0
   -5.1610    0.1120   -0.5802 H   0  0  0  0  0  0  0  0  0  0  0  0
   -4.6081    0.0054    1.1277 H   0  0  0  0  0  0  0  0  0  0  0  0
   -3.5605   -1.1622    0.0544 O   0  0  0  0  0  0  0  0  0  0  0  0
  1  3  1  0  0  0  0
  2  1  1  0  0  0  0
  4  1  1  0  0  0  0
  4 14  1  0  0  0  0
  4  5  1  0  0  0  0
  6  4  1  0  0  0  0
  8 10  1  0  0  0  0
  8  1  1  0  0  0  0
  8 11  1  0  0  0  0
  9  8  1  0  0  0  0
 11 13  1  0  0  0  0
 12 11  1  0  0  0  0
 14 11  1  0  0  0  0
M  END
$$$$
Title Card Required
 OpenBabel07152211483D

 14 13  0  0  0  0  0  0  0  0999 V2000
   -1.6439    0.2497   -0.0067 C   0  0  0  0  0  0  0  0  0  0  0  0
   -0.8980    0.7972   -0.7433 H   0  0  0  0  0  0  0  0  0  0  0  0
   -1.2890    0.4642    1.0373 H   0  0  0  0  0  0  0  0  0  0  0  0
   -2.0203   -1.1501   -0.2957 C   0  0  0  0  0  0  0  0  0  0  0  0
   -1.4491   -1.7644    0.4072 H   0  0  0  0  0  0  0  0  0  0  0  0
   -2.0188   -1.2662   -1.3314 H   0  0  0  0  0  0  0  0  0  0  0  0
    2.6257    0.1622    0.0880 Br  0  0  0  0  0 15  0  0  0  0  0  0
   -2.9448    1.0815   -0.3051 C   0  0  0  0  0  0  0  0  0  0  0  0
   -2.8747    1.0971   -1.4584 H   0  0  0  0  0  0  0  0  0  0  0  0
   -2.9666    2.2280   -0.1997 H   0  0  0  0  0  0  0  0  0  0  0  0
   -4.0863    0.1538    0.0971 C   0  0  0  0  0  0  0  0  0  0  0  0
   -5.1788    0.1841   -0.6107 H   0  0  0  0  0  0  0  0  0  0  0  0
   -4.5963    0.0208    1.1234 H   0  0  0  0  0  0  0  0  0  0  0  0
   -3.5910   -1.1627    0.0604 O   0  0  0  0  0  0  0  0  0  0  0  0
  1  3  1  0  0  0  0
  2  1  1  0  0  0  0
  4  1  1  0  0  0  0
  4 14  1  0  0  0  0
  4  5  1  0  0  0  0
  6  4  1  0  0  0  0
  8 10  1  0  0  0  0
  8  1  1  0  0  0  0
  8 11  1  0  0  0  0
  9  8  1  0  0  0  0
 11 13  1  0  0  0  0
 12 11  1  0  0  0  0
 14 11  1  0  0  0  0
M  END
$$$$
Title Card Required
 OpenBabel07152211483D

 14 13  0  0  0  0  0  0  0  0999 V2000
   -1.6472    0.2528    0.0015 C   0  0  0  0  0  0  0  0  0  0  0  0
   -0.8790    0.8272   -0.6985 H   0  0  0  0  0  0  0  0  0  0  0  0
   -1.2187    0.4554    1.0523 H   0  0  0  0  0  0  0  0  0  0  0  0
   -1.9961   -1.1745   -0.2996 C   0  0  0  0  0  0  0  0  0  0  0  0
   -1.4010   -1.7950    0.3676 H   0  0  0  0  0  0  0  0  0  0  0  0
   -2.0749   -1.3375   -1.3399 H   0  0  0  0  0  0  0  0  0  0  0  0
    2.6293    0.1634    0.0880 Br  0  0  0  0  0 15  0  0  0  0  0  0
   -2.9474    1.0949   -0.3143 C   0  0  0  0  0  0  0  0  0  0  0  0
   -2.9180    1.0967   -1.4249 H   0  0  0  0  0  0  0  0  0  0  0  0
   -3.0222    2.2351   -0.1789 H   0  0  0  0  0  0  0  0  0  0  0  0
   -4.0935    0.1514    0.0923 C   0  0  0  0  0  0  0  0  0  0  0  0
   -5.1567    0.2606   -0.6252 H   0  0  0  0  0  0  0  0  0  0  0  0
   -4.5732    0.0629    1.1103 H   0  0  0  0  0  0  0  0  0  0  0  0
   -3.6189   -1.1637    0.0655 O   0  0  0  0  0  0  0  0  0  0  0  0
  1  3  1  0  0  0  0
  2  1  1  0  0  0  0
  4  1  1  0  0  0  0
  4 14  1  0  0  0  0
  4  5  1  0  0  0  0
  6  4  1  0  0  0  0
  8 10  1  0  0  0  0
  8  1  1  0  0  0  0
  8 11  1  0  0  0  0
  9  8  1  0  0  0  0
 11 13  1  0  0  0  0
 12 11  1  0  0  0  0
 14 11  1  0  0  0  0
M  END
$$$$
Title Card Required
 OpenBabel07152211483D

 14 13  0  0  0  0  0  0  0  0999 V2000
   -1.6489    0.2602    0.0097 C   0  0  0  0  0  0  0  0  0  0  0  0
   -0.8701    0.8324   -0.6384 H   0  0  0  0  0  0  0  0  0  0  0  0
   -1.1590    0.4391    1.0511 H   0  0  0  0  0  0  0  0  0  0  0  0
   -1.9761   -1.1959   -0.3015 C   0  0  0  0  0  0  0  0  0  0  0  0
   -1.3592   -1.8357    0.3253 H   0  0  0  0  0  0  0  0  0  0  0  0
   -2.1224   -1.4180   -1.3641 H   0  0  0  0  0  0  0  0  0  0  0  0
    2.6329    0.1646    0.0880 Br  0  0  0  0  0 15  0  0  0  0  0  0
   -2.9500    1.1079   -0.3241 C   0  0  0  0  0  0  0  0  0  0  0  0
   -2.9660    1.0929   -1.3913 H   0  0  0  0  0  0  0  0  0  0  0  0
   -3.0734    2.2222   -0.1472 H   0  0  0  0  0  0  0  0  0  0  0  0
   -4.1041    0.1481    0.0873 C   0  0  0  0  0  0  0  0  0  0  0  0
   -5.0993    0.3335   -0.6234 H   0  0  0  0  0  0  0  0  0  0  0  0
   -4.5443    0.1274    1.0943 H   0  0  0  0  0  0  0  0  0  0  0  0
   -3.6432   -1.1655    0.0694 O   0  0  0  0  0  0  0  0  0  0  0  0
  1  3  1  0  0  0  0
  2  1  1  0  0  0  0
  4  1  1  0  0  0  0
  4 14  1  0  0  0  0
  4  5  1  0  0  0  0
  6  4  1  0  0  0  0
  8 10  1  0  0  0  0
  8  1  1  0  0  0  0
  8 11  1  0  0  0  0
  9  8  1  0  0  0  0
 11 13  1  0  0  0  0
 12 11  1  0  0  0  0
 14 11  1  0  0  0  0
M  END
$$$$
Title Card Required
 OpenBabel07152211483D

 14 13  0  0  0  0  0  0  0  0999 V2000
   -1.6491    0.2706    0.0178 C   0  0  0  0  0  0  0  0  0  0  0  0
   -0.8684    0.8167   -0.5711 H   0  0  0  0  0  0  0  0  0  0  0  0
   -1.1147    0.4161    1.0335 H   0  0  0  0  0  0  0  0  0  0  0  0
   -1.9602   -1.2144   -0.3031 C   0  0  0  0  0  0  0  0  0  0  0  0
   -1.3238   -1.8844    0.2832 H   0  0  0  0  0  0  0  0  0  0  0  0
   -2.1595   -1.5005   -1.3873 H   0  0  0  0  0  0  0  0  0  0  0  0
    2.6363    0.1658    0.0879 Br  0  0  0  0  0 15  0  0  0  0  0  0
   -2.9528    1.1196   -0.3328 C   0  0  0  0  0  0  0  0  0  0  0  0
   -3.0149    1.0874   -1.3740 H   0  0  0  0  0  0  0  0  0  0  0  0
   -3.1187    2.1951   -0.1065 H   0  0  0  0  0  0  0  0  0  0  0  0
   -4.1165    0.1449    0.0818 C   0  0  0  0  0  0  0  0  0  0  0  0
   -5.0158    0.3983   -0.6086 H   0  0  0  0  0  0  0  0  0  0  0  0
   -4.5145    0.2100    1.0829 H   0  0  0  0  0  0  0  0  0  0  0  0
   -3.6643   -1.1681    0.0724 O   0  0  0  0  0  0  0  0  0  0  0  0
  1  3  1  0  0  0  0
  2  1  1  0  0  0  0
  4  1  1  0  0  0  0
  4 14  1  0  0  0  0
  4  5  1  0  0  0  0
  6  4  1  0  0  0  0
  8 10  1  0  0  0  0
  8  1  1  0  0  0  0
  8 11  1  0  0  0  0
  9  8  1  0  0  0  0
 11 13  1  0  0  0  0
 12 11  1  0  0  0  0
 14 11  1  0  0  0  0
M  END
$$$$
